1q8n_lig
 OpenBabel11021811403D
libRbt.so/2013.1/901 2013/11/27
 25 27  0  0  0  0  0  0  0  0999 V2000
    0.5677    1.0174   -2.0050 C   0  0  0  0  0  0  0  0  0  0  0  0
    0.5163    2.1128   -3.2145 C   0  0  0  0  0  0  0  0  0  0  0  0
   -1.3139    2.6595    3.3973 N   0  0  0  0  0  0  0  0  0  0  0  0
   -0.2073    1.9427   -4.3469 C   0  0  0  0  0  0  0  0  0  0  0  0
    2.4640   -4.6268   -2.6837 N   0  0  0  0  0  0  0  0  0  0  0  0
   -0.2220    2.9596   -5.4236 C   0  0  0  0  0  0  0  0  0  0  0  0
    0.5010    4.0946   -5.2852 C   0  0  0  0  0  0  0  0  0  0  0  0
    1.2743    4.2992   -4.0827 C   0  0  0  0  0  0  0  0  0  0  0  0
    1.2809    3.3740   -3.1198 C   0  0  0  0  0  0  0  0  0  0  0  0
    0.0511    1.4724   -0.5264 C   0  0  0  0  0  0  0  0  0  0  0  0
   -0.6492    2.6121   -0.3503 C   0  0  0  0  0  0  0  0  0  0  0  0
   -1.1287    3.0431    0.9921 C   0  0  0  0  0  0  0  0  0  0  0  0
   -0.8688    2.2818    2.0885 C   0  0  0  0  0  0  0  0  0  0  0  0
   -0.1061    1.0317    1.9113 C   0  0  0  0  0  0  0  0  0  0  0  0
    0.3197    0.6595    0.6960 C   0  0  0  0  0  0  0  0  0  0  0  0
    1.1276   -0.5242   -2.2475 C   0  0  0  0  0  0  0  0  0  0  0  0
    0.8935   -1.5778   -1.2002 C   0  0  0  0  0  0  0  0  0  0  0  0
    1.3098   -2.8395   -1.3380 C   0  0  0  0  0  0  0  0  0  0  0  0
    2.0316   -3.2680   -2.5418 C   0  0  0  0  0  0  0  0  0  0  0  0
    2.2733   -2.3600   -3.5101 C   0  0  0  0  0  0  0  0  0  0  0  0
    1.8088   -0.9392   -3.3669 C   0  0  0  0  0  0  0  0  0  0  0  0
   -2.0661    3.8542    3.6331 C   0  0  0  0  0  0  0  0  0  0  0  0
   -1.0121    1.8339    4.5254 C   0  0  0  0  0  0  0  0  0  0  0  0
    3.4148   -4.9831   -3.6973 C   0  0  0  0  0  0  0  0  0  0  0  0
    1.9645   -5.6678   -1.8142 C   0  0  0  0  0  0  0  0  0  0  0  0
  1  2  1  0  0  0  0
  1 10  1  0  0  0  0
  1 16  1  0  0  0  0
  2  4  2  0  0  0  0
  2  9  1  0  0  0  0
  4  6  1  0  0  0  0
  6  7  2  0  0  0  0
  7  8  1  0  0  0  0
  8  9  2  0  0  0  0
 10 11  2  0  0  0  0
 10 15  1  0  0  0  0
 11 12  1  0  0  0  0
 12 13  2  0  0  0  0
 13  3  1  0  0  0  0
 13 14  1  0  0  0  0
 14 15  2  0  0  0  0
 16 17  2  0  0  0  0
 16 21  1  0  0  0  0
 17 18  1  0  0  0  0
 18 19  2  0  0  0  0
 19  5  1  0  0  0  0
 19 20  1  0  0  0  0
 20 21  2  0  0  0  0
 22  3  1  0  0  0  0
 23  3  1  0  0  0  0
 24  5  1  0  0  0  0
 25  5  1  0  0  0  0
M  END
>  <CHROM.1>
-119.53448061,13.36861704,-167.19476221,0.42507608,-166.02158383,0.56914087
0.44845997,-1.28221240,-3.09052258,-1.19170704,2.28148122

>  <Name>
1q8n_lig

>  <RI>
0

>  <Rbt.Current_Directory>
/home/itssahil/PROJECTS/Mol_Feturizer/New_Systems/rnas/1q8n

>  <Rbt.Executable>
rbdock ($Id: //depot/dev/client3/rdock/2013.1/src/exe/rbdock.cxx#4 $)

>  <Rbt.Library>
libRbt.so (2013.1, Build901 2013/11/27)

>  <Rbt.Parameter_File>
/export/apps/rDock/src/rDock_2013.1_src/data/scripts/dock_solv.prm

>  <Rbt.Receptor>
prm/pocket_docking_2.prm

>  <SCORE>
-51.6146

>  <SCORE.INTER>
-52.1721

>  <SCORE.INTER.CONST>
1

>  <SCORE.INTER.POLAR>
0

>  <SCORE.INTER.ROT>
5

>  <SCORE.INTER.SOLV>
10.7361

>  <SCORE.INTER.VDW>
-45.2934

>  <SCORE.INTER.norm>
-2.08688

>  <SCORE.INTRA>
0.524425

>  <SCORE.INTRA.DIHEDRAL>
0.744411

>  <SCORE.INTRA.DIHEDRAL.0>
2.1627

>  <SCORE.INTRA.POLAR>
0

>  <SCORE.INTRA.POLAR.0>
0

>  <SCORE.INTRA.REPUL>
0

>  <SCORE.INTRA.REPUL.0>
0

>  <SCORE.INTRA.SOLV>
0.0240143

>  <SCORE.INTRA.SOLV.lig_0>
-5.95779

>  <SCORE.INTRA.VDW>
0.140213

>  <SCORE.INTRA.VDW.0>
3.81702

>  <SCORE.INTRA.norm>
0.020977

>  <SCORE.RESTR>
0.0330532

>  <SCORE.RESTR.CAVITY>
0.0330532

>  <SCORE.RESTR.norm>
0.00132213

>  <SCORE.SYSTEM>
0

>  <SCORE.SYSTEM.CONST>
0

>  <SCORE.SYSTEM.DIHEDRAL>
0

>  <SCORE.SYSTEM.SOLV>
0

>  <SCORE.SYSTEM.norm>
0

>  <SCORE.heavy>
25

>  <SCORE.norm>
-2.06458

>  <RMSD>
0.363

$$$$
1q8n_lig
 OpenBabel11021811403D
libRbt.so/2013.1/901 2013/11/27
 25 27  0  0  0  0  0  0  0  0999 V2000
    0.6540    1.0739   -1.9912 C   0  0  0  0  0  0  0  0  0  0  0  0
    0.6286    2.1941   -3.1786 C   0  0  0  0  0  0  0  0  0  0  0  0
   -1.3009    2.6183    3.4139 N   0  0  0  0  0  0  0  0  0  0  0  0
    1.3132    3.3615   -3.1196 C   0  0  0  0  0  0  0  0  0  0  0  0
    2.5122   -4.5707   -2.7646 N   0  0  0  0  0  0  0  0  0  0  0  0
    1.2584    4.3545   -4.2173 C   0  0  0  0  0  0  0  0  0  0  0  0
    0.5096    4.1011   -5.3150 C   0  0  0  0  0  0  0  0  0  0  0  0
   -0.2230    2.8595   -5.4013 C   0  0  0  0  0  0  0  0  0  0  0  0
   -0.1670    1.9730   -4.4042 C   0  0  0  0  0  0  0  0  0  0  0  0
    0.1180    1.5023   -0.5115 C   0  0  0  0  0  0  0  0  0  0  0  0
   -0.4552    2.7046   -0.2964 C   0  0  0  0  0  0  0  0  0  0  0  0
   -0.9502    3.1125    1.0477 C   0  0  0  0  0  0  0  0  0  0  0  0
   -0.8357    2.2653    2.1052 C   0  0  0  0  0  0  0  0  0  0  0  0
   -0.2131    0.9463    1.8848 C   0  0  0  0  0  0  0  0  0  0  0  0
    0.2288    0.5959    0.6689 C   0  0  0  0  0  0  0  0  0  0  0  0
    1.2070   -0.4664   -2.2567 C   0  0  0  0  0  0  0  0  0  0  0  0
    0.8925   -1.5544   -1.2673 C   0  0  0  0  0  0  0  0  0  0  0  0
    1.2994   -2.8166   -1.4268 C   0  0  0  0  0  0  0  0  0  0  0  0
    2.0903   -3.2114   -2.5984 C   0  0  0  0  0  0  0  0  0  0  0  0
    2.4054   -2.2719   -3.5140 C   0  0  0  0  0  0  0  0  0  0  0  0
    1.9522   -0.8502   -3.3461 C   0  0  0  0  0  0  0  0  0  0  0  0
   -1.0310    1.8105    4.5642 C   0  0  0  0  0  0  0  0  0  0  0  0
   -2.0624    3.8131    3.6081 C   0  0  0  0  0  0  0  0  0  0  0  0
    2.0103   -5.5972   -1.8969 C   0  0  0  0  0  0  0  0  0  0  0  0
    3.4426   -4.9455   -3.8055 C   0  0  0  0  0  0  0  0  0  0  0  0
  1  2  1  0  0  0  0
  1 10  1  0  0  0  0
  1 16  1  0  0  0  0
  2  4  2  0  0  0  0
  2  9  1  0  0  0  0
  4  6  1  0  0  0  0
  6  7  2  0  0  0  0
  7  8  1  0  0  0  0
  8  9  2  0  0  0  0
 10 11  2  0  0  0  0
 10 15  1  0  0  0  0
 11 12  1  0  0  0  0
 12 13  2  0  0  0  0
 13  3  1  0  0  0  0
 13 14  1  0  0  0  0
 14 15  2  0  0  0  0
 16 17  2  0  0  0  0
 16 21  1  0  0  0  0
 17 18  1  0  0  0  0
 18 19  2  0  0  0  0
 19  5  1  0  0  0  0
 19 20  1  0  0  0  0
 20 21  2  0  0  0  0
 22  3  1  0  0  0  0
 23  3  1  0  0  0  0
 24  5  1  0  0  0  0
 25  5  1  0  0  0  0
M  END
>  <CHROM.1>
60.49833516,6.46009326,-164.23155527,-171.71634970,8.98554763,0.61033843
0.46940767,-1.30350651,-3.10177511,-1.18855818,2.29652985

>  <Name>
1q8n_lig

>  <RI>
0

>  <Rbt.Current_Directory>
/home/itssahil/PROJECTS/Mol_Feturizer/New_Systems/rnas/1q8n

>  <Rbt.Executable>
rbdock ($Id: //depot/dev/client3/rdock/2013.1/src/exe/rbdock.cxx#4 $)

>  <Rbt.Library>
libRbt.so (2013.1, Build901 2013/11/27)

>  <Rbt.Parameter_File>
/export/apps/rDock/src/rDock_2013.1_src/data/scripts/dock_solv.prm

>  <Rbt.Receptor>
prm/pocket_docking_2.prm

>  <SCORE>
-52.5834

>  <SCORE.INTER>
-53.1302

>  <SCORE.INTER.CONST>
1

>  <SCORE.INTER.POLAR>
0

>  <SCORE.INTER.ROT>
5

>  <SCORE.INTER.SOLV>
10.5845

>  <SCORE.INTER.VDW>
-45.8817

>  <SCORE.INTER.norm>
-2.12521

>  <SCORE.INTRA>
0.538669

>  <SCORE.INTRA.DIHEDRAL>
0.575814

>  <SCORE.INTRA.DIHEDRAL.0>
2.1627

>  <SCORE.INTRA.POLAR>
0

>  <SCORE.INTRA.POLAR.0>
0

>  <SCORE.INTRA.REPUL>
0

>  <SCORE.INTRA.REPUL.0>
0

>  <SCORE.INTRA.SOLV>
0.0245551

>  <SCORE.INTRA.SOLV.lig_0>
-5.95779

>  <SCORE.INTRA.VDW>
0.238485

>  <SCORE.INTRA.VDW.0>
3.81702

>  <SCORE.INTRA.norm>
0.0215468

>  <SCORE.RESTR>
0.00814973

>  <SCORE.RESTR.CAVITY>
0.00814973

>  <SCORE.RESTR.norm>
0.000325989

>  <SCORE.SYSTEM>
0

>  <SCORE.SYSTEM.CONST>
0

>  <SCORE.SYSTEM.DIHEDRAL>
0

>  <SCORE.SYSTEM.SOLV>
0

>  <SCORE.SYSTEM.norm>
0

>  <SCORE.heavy>
25

>  <SCORE.norm>
-2.10334

>  <RMSD>
0.381

$$$$
1q8n_lig
 OpenBabel11021811403D
libRbt.so/2013.1/901 2013/11/27
 25 27  0  0  0  0  0  0  0  0999 V2000
    0.6290    1.0168   -1.9597 C   0  0  0  0  0  0  0  0  0  0  0  0
    0.6048    2.1441   -3.1405 C   0  0  0  0  0  0  0  0  0  0  0  0
   -1.2975    2.5781    3.4506 N   0  0  0  0  0  0  0  0  0  0  0  0
    1.2983    3.3060   -3.0789 C   0  0  0  0  0  0  0  0  0  0  0  0
    2.4629   -4.6313   -2.7651 N   0  0  0  0  0  0  0  0  0  0  0  0
    1.2443    4.3057   -4.1705 C   0  0  0  0  0  0  0  0  0  0  0  0
    0.4871    4.0642   -5.2652 C   0  0  0  0  0  0  0  0  0  0  0  0
   -0.2551    2.8284   -5.3542 C   0  0  0  0  0  0  0  0  0  0  0  0
   -0.1997    1.9359   -4.3626 C   0  0  0  0  0  0  0  0  0  0  0  0
    0.1020    1.4397   -0.4753 C   0  0  0  0  0  0  0  0  0  0  0  0
    0.3478    0.6644    0.6012 C   0  0  0  0  0  0  0  0  0  0  0  0
   -0.1256    1.0347    1.9638 C   0  0  0  0  0  0  0  0  0  0  0  0
   -0.8260    2.1844    2.1559 C   0  0  0  0  0  0  0  0  0  0  0  0
   -1.1005    3.0435    0.9886 C   0  0  0  0  0  0  0  0  0  0  0  0
   -0.6686    2.6942   -0.2312 C   0  0  0  0  0  0  0  0  0  0  0  0
    1.1720   -0.5250   -2.2366 C   0  0  0  0  0  0  0  0  0  0  0  0
    0.9226   -1.6000   -1.2150 C   0  0  0  0  0  0  0  0  0  0  0  0
    1.3249   -2.8629   -1.3812 C   0  0  0  0  0  0  0  0  0  0  0  0
    2.0455   -3.2714   -2.5926 C   0  0  0  0  0  0  0  0  0  0  0  0
    2.3008   -2.3438   -3.5386 C   0  0  0  0  0  0  0  0  0  0  0  0
    1.8521   -0.9215   -3.3635 C   0  0  0  0  0  0  0  0  0  0  0  0
   -1.0505    1.7963    4.6238 C   0  0  0  0  0  0  0  0  0  0  0  0
   -2.0422    3.7890    3.6069 C   0  0  0  0  0  0  0  0  0  0  0  0
    3.3990   -4.9775   -3.7957 C   0  0  0  0  0  0  0  0  0  0  0  0
    1.9624   -5.6839   -1.9100 C   0  0  0  0  0  0  0  0  0  0  0  0
  1  2  1  0  0  0  0
  1 10  1  0  0  0  0
  1 16  1  0  0  0  0
  2  4  2  0  0  0  0
  2  9  1  0  0  0  0
  4  6  1  0  0  0  0
  6  7  2  0  0  0  0
  7  8  1  0  0  0  0
  8  9  2  0  0  0  0
 10 11  2  0  0  0  0
 10 15  1  0  0  0  0
 11 12  1  0  0  0  0
 12 13  2  0  0  0  0
 13  3  1  0  0  0  0
 13 14  1  0  0  0  0
 14 15  2  0  0  0  0
 16 17  2  0  0  0  0
 16 21  1  0  0  0  0
 17 18  1  0  0  0  0
 18 19  2  0  0  0  0
 19  5  1  0  0  0  0
 19 20  1  0  0  0  0
 20 21  2  0  0  0  0
 22  3  1  0  0  0  0
 23  3  1  0  0  0  0
 24  5  1  0  0  0  0
 25  5  1  0  0  0  0
M  END
>  <CHROM.1>
60.62440372,-166.04400302,-167.67221419,0.67326370,-166.86814012,0.58262824
0.42994936,-1.28094534,-3.10795445,-1.19338149,2.28599910

>  <Name>
1q8n_lig

>  <RI>
0

>  <Rbt.Current_Directory>
/home/itssahil/PROJECTS/Mol_Feturizer/New_Systems/rnas/1q8n

>  <Rbt.Executable>
rbdock ($Id: //depot/dev/client3/rdock/2013.1/src/exe/rbdock.cxx#4 $)

>  <Rbt.Library>
libRbt.so (2013.1, Build901 2013/11/27)

>  <Rbt.Parameter_File>
/export/apps/rDock/src/rDock_2013.1_src/data/scripts/dock_solv.prm

>  <Rbt.Receptor>
prm/pocket_docking_2.prm

>  <SCORE>
-52.3226

>  <SCORE.INTER>
-52.9385

>  <SCORE.INTER.CONST>
1

>  <SCORE.INTER.POLAR>
0

>  <SCORE.INTER.ROT>
5

>  <SCORE.INTER.SOLV>
10.5704

>  <SCORE.INTER.VDW>
-45.7491

>  <SCORE.INTER.norm>
-2.11754

>  <SCORE.INTRA>
0.608973

>  <SCORE.INTRA.DIHEDRAL>
0.660563

>  <SCORE.INTRA.DIHEDRAL.0>
2.1627

>  <SCORE.INTRA.POLAR>
0

>  <SCORE.INTRA.POLAR.0>
0

>  <SCORE.INTRA.REPUL>
0

>  <SCORE.INTRA.REPUL.0>
0

>  <SCORE.INTRA.SOLV>
0.0216392

>  <SCORE.INTRA.SOLV.lig_0>
-5.95779

>  <SCORE.INTRA.VDW>
0.267872

>  <SCORE.INTRA.VDW.0>
3.81702

>  <SCORE.INTRA.norm>
0.0243589

>  <SCORE.RESTR>
0.00691036

>  <SCORE.RESTR.CAVITY>
0.00691036

>  <SCORE.RESTR.norm>
0.000276414

>  <SCORE.SYSTEM>
0

>  <SCORE.SYSTEM.CONST>
0

>  <SCORE.SYSTEM.DIHEDRAL>
0

>  <SCORE.SYSTEM.SOLV>
0

>  <SCORE.SYSTEM.norm>
0

>  <SCORE.heavy>
25

>  <SCORE.norm>
-2.0929

>  <RMSD>
0.387

$$$$
1q8n_lig
 OpenBabel11021811403D
libRbt.so/2013.1/901 2013/11/27
 25 27  0  0  0  0  0  0  0  0999 V2000
    0.6114    1.0272   -1.9634 C   0  0  0  0  0  0  0  0  0  0  0  0
    0.5827    2.1443   -3.1537 C   0  0  0  0  0  0  0  0  0  0  0  0
   -1.3011    2.5944    3.4503 N   0  0  0  0  0  0  0  0  0  0  0  0
    1.2917    3.2978   -3.1135 C   0  0  0  0  0  0  0  0  0  0  0  0
    2.4546   -4.6240   -2.7246 N   0  0  0  0  0  0  0  0  0  0  0  0
    1.2330    4.2885   -4.2131 C   0  0  0  0  0  0  0  0  0  0  0  0
    0.4555    4.0471   -5.2935 C   0  0  0  0  0  0  0  0  0  0  0  0
   -0.3035    2.8202   -5.3597 C   0  0  0  0  0  0  0  0  0  0  0  0
   -0.2437    1.9357   -4.3610 C   0  0  0  0  0  0  0  0  0  0  0  0
    0.0862    1.4617   -0.4817 C   0  0  0  0  0  0  0  0  0  0  0  0
   -0.6478    2.5790   -0.2996 C   0  0  0  0  0  0  0  0  0  0  0  0
   -1.1358    2.9910    1.0458 C   0  0  0  0  0  0  0  0  0  0  0  0
   -0.8491    2.2345    2.1389 C   0  0  0  0  0  0  0  0  0  0  0  0
   -0.0493    1.0087    1.9551 C   0  0  0  0  0  0  0  0  0  0  0  0
    0.3835    0.6535    0.7372 C   0  0  0  0  0  0  0  0  0  0  0  0
    1.1572   -0.5157   -2.2281 C   0  0  0  0  0  0  0  0  0  0  0  0
    0.9054   -1.5842   -1.2002 C   0  0  0  0  0  0  0  0  0  0  0  0
    1.3098   -2.8477   -1.3565 C   0  0  0  0  0  0  0  0  0  0  0  0
    2.0351   -3.2634   -2.5627 C   0  0  0  0  0  0  0  0  0  0  0  0
    2.2925   -2.3418   -3.5140 C   0  0  0  0  0  0  0  0  0  0  0  0
    1.8415   -0.9189   -3.3499 C   0  0  0  0  0  0  0  0  0  0  0  0
   -1.0219    1.7912    4.6016 C   0  0  0  0  0  0  0  0  0  0  0  0
   -2.0582    3.7917    3.6464 C   0  0  0  0  0  0  0  0  0  0  0  0
    1.9605   -5.6447   -1.8457 C   0  0  0  0  0  0  0  0  0  0  0  0
    3.3746   -5.0058   -3.7721 C   0  0  0  0  0  0  0  0  0  0  0  0
  1  2  1  0  0  0  0
  1 10  1  0  0  0  0
  1 16  1  0  0  0  0
  2  4  2  0  0  0  0
  2  9  1  0  0  0  0
  4  6  1  0  0  0  0
  6  7  2  0  0  0  0
  7  8  1  0  0  0  0
  8  9  2  0  0  0  0
 10 11  2  0  0  0  0
 10 15  1  0  0  0  0
 11 12  1  0  0  0  0
 12 13  2  0  0  0  0
 13  3  1  0  0  0  0
 13 14  1  0  0  0  0
 14 15  2  0  0  0  0
 16 17  2  0  0  0  0
 16 21  1  0  0  0  0
 17 18  1  0  0  0  0
 18 19  2  0  0  0  0
 19  5  1  0  0  0  0
 19 20  1  0  0  0  0
 20 21  2  0  0  0  0
 22  3  1  0  0  0  0
 23  3  1  0  0  0  0
 24  5  1  0  0  0  0
 25  5  1  0  0  0  0
M  END
>  <CHROM.1>
61.79325733,15.96362258,-167.34897038,178.94071141,11.82980490,0.57391442
0.42633184,-1.27121813,-3.12841338,-1.19359195,2.26665001

>  <Name>
1q8n_lig

>  <RI>
0

>  <Rbt.Current_Directory>
/home/itssahil/PROJECTS/Mol_Feturizer/New_Systems/rnas/1q8n

>  <Rbt.Executable>
rbdock ($Id: //depot/dev/client3/rdock/2013.1/src/exe/rbdock.cxx#4 $)

>  <Rbt.Library>
libRbt.so (2013.1, Build901 2013/11/27)

>  <Rbt.Parameter_File>
/export/apps/rDock/src/rDock_2013.1_src/data/scripts/dock_solv.prm

>  <Rbt.Receptor>
prm/pocket_docking_2.prm

>  <SCORE>
-52.579

>  <SCORE.INTER>
-53.0262

>  <SCORE.INTER.CONST>
1

>  <SCORE.INTER.POLAR>
0

>  <SCORE.INTER.ROT>
5

>  <SCORE.INTER.SOLV>
10.5996

>  <SCORE.INTER.VDW>
-45.8173

>  <SCORE.INTER.norm>
-2.12105

>  <SCORE.INTRA>
0.400879

>  <SCORE.INTRA.DIHEDRAL>
0.539154

>  <SCORE.INTRA.DIHEDRAL.0>
2.1627

>  <SCORE.INTRA.POLAR>
0

>  <SCORE.INTRA.POLAR.0>
0

>  <SCORE.INTRA.REPUL>
0

>  <SCORE.INTRA.REPUL.0>
0

>  <SCORE.INTRA.SOLV>
0.0205104

>  <SCORE.INTRA.SOLV.lig_0>
-5.95779

>  <SCORE.INTRA.VDW>
0.121047

>  <SCORE.INTRA.VDW.0>
3.81702

>  <SCORE.INTRA.norm>
0.0160352

>  <SCORE.RESTR>
0.0463582

>  <SCORE.RESTR.CAVITY>
0.0463582

>  <SCORE.RESTR.norm>
0.00185433

>  <SCORE.SYSTEM>
0

>  <SCORE.SYSTEM.CONST>
0

>  <SCORE.SYSTEM.DIHEDRAL>
0

>  <SCORE.SYSTEM.SOLV>
0

>  <SCORE.SYSTEM.norm>
0

>  <SCORE.heavy>
25

>  <SCORE.norm>
-2.10316

>  <RMSD>
0.388

$$$$
1q8n_lig
 OpenBabel11021811403D
libRbt.so/2013.1/901 2013/11/27
 25 27  0  0  0  0  0  0  0  0999 V2000
    0.5923    0.9323   -1.9479 C   0  0  0  0  0  0  0  0  0  0  0  0
    0.5450    2.0439   -3.1427 C   0  0  0  0  0  0  0  0  0  0  0  0
   -1.2798    2.5496    3.4652 N   0  0  0  0  0  0  0  0  0  0  0  0
   -0.1506    1.8758   -4.2928 C   0  0  0  0  0  0  0  0  0  0  0  0
    2.4595   -4.7120   -2.7016 N   0  0  0  0  0  0  0  0  0  0  0  0
   -0.1625    2.9077   -5.3554 C   0  0  0  0  0  0  0  0  0  0  0  0
    0.5345    4.0546   -5.1854 C   0  0  0  0  0  0  0  0  0  0  0  0
    1.2776    4.2570   -3.9636 C   0  0  0  0  0  0  0  0  0  0  0  0
    1.2821    3.3183   -3.0139 C   0  0  0  0  0  0  0  0  0  0  0  0
    0.0807    1.3707   -0.4625 C   0  0  0  0  0  0  0  0  0  0  0  0
    0.4338    0.6686    0.6342 C   0  0  0  0  0  0  0  0  0  0  0  0
   -0.0239    1.0542    1.9980 C   0  0  0  0  0  0  0  0  0  0  0  0
   -0.8195    2.1435    2.1703 C   0  0  0  0  0  0  0  0  0  0  0  0
   -1.2120    2.9223    0.9806 C   0  0  0  0  0  0  0  0  0  0  0  0
   -0.7926    2.5602   -0.2399 C   0  0  0  0  0  0  0  0  0  0  0  0
    1.1433   -0.6090   -2.2115 C   0  0  0  0  0  0  0  0  0  0  0  0
    0.9245   -1.6697   -1.1681 C   0  0  0  0  0  0  0  0  0  0  0  0
    1.3345   -2.9315   -1.3226 C   0  0  0  0  0  0  0  0  0  0  0  0
    2.0337   -3.3531   -2.5421 C   0  0  0  0  0  0  0  0  0  0  0  0
    2.2611   -2.4386   -3.5077 C   0  0  0  0  0  0  0  0  0  0  0  0
    1.8034   -1.0176   -3.3459 C   0  0  0  0  0  0  0  0  0  0  0  0
   -1.0073    1.7882    4.6461 C   0  0  0  0  0  0  0  0  0  0  0  0
   -2.0388    3.7525    3.6138 C   0  0  0  0  0  0  0  0  0  0  0  0
    1.9317   -5.7417   -1.8534 C   0  0  0  0  0  0  0  0  0  0  0  0
    3.4199   -5.0831   -3.7162 C   0  0  0  0  0  0  0  0  0  0  0  0
  1  2  1  0  0  0  0
  1 10  1  0  0  0  0
  1 16  1  0  0  0  0
  2  4  2  0  0  0  0
  2  9  1  0  0  0  0
  4  6  1  0  0  0  0
  6  7  2  0  0  0  0
  7  8  1  0  0  0  0
  8  9  2  0  0  0  0
 10 11  2  0  0  0  0
 10 15  1  0  0  0  0
 11 12  1  0  0  0  0
 12 13  2  0  0  0  0
 13  3  1  0  0  0  0
 13 14  1  0  0  0  0
 14 15  2  0  0  0  0
 16 17  2  0  0  0  0
 16 21  1  0  0  0  0
 17 18  1  0  0  0  0
 18 19  2  0  0  0  0
 19  5  1  0  0  0  0
 19 20  1  0  0  0  0
 20 21  2  0  0  0  0
 22  3  1  0  0  0  0
 23  3  1  0  0  0  0
 24  5  1  0  0  0  0
 25  5  1  0  0  0  0
M  END
>  <CHROM.1>
-121.50884554,-160.78105369,-168.17539937,-4.23846810,15.65050222,0.58251140
0.37570749,-1.24139244,-3.08334687,-1.19511695,2.29236623

>  <Name>
1q8n_lig

>  <RI>
0

>  <Rbt.Current_Directory>
/home/itssahil/PROJECTS/Mol_Feturizer/New_Systems/rnas/1q8n

>  <Rbt.Executable>
rbdock ($Id: //depot/dev/client3/rdock/2013.1/src/exe/rbdock.cxx#4 $)

>  <Rbt.Library>
libRbt.so (2013.1, Build901 2013/11/27)

>  <Rbt.Parameter_File>
/export/apps/rDock/src/rDock_2013.1_src/data/scripts/dock_solv.prm

>  <Rbt.Receptor>
prm/pocket_docking_2.prm

>  <SCORE>
-51.9182

>  <SCORE.INTER>
-52.4232

>  <SCORE.INTER.CONST>
1

>  <SCORE.INTER.POLAR>
0

>  <SCORE.INTER.ROT>
5

>  <SCORE.INTER.SOLV>
10.6616

>  <SCORE.INTER.VDW>
-45.436

>  <SCORE.INTER.norm>
-2.09693

>  <SCORE.INTRA>
0.491211

>  <SCORE.INTRA.DIHEDRAL>
0.999368

>  <SCORE.INTRA.DIHEDRAL.0>
2.1627

>  <SCORE.INTRA.POLAR>
0

>  <SCORE.INTRA.POLAR.0>
0

>  <SCORE.INTRA.REPUL>
0

>  <SCORE.INTRA.REPUL.0>
0

>  <SCORE.INTRA.SOLV>
0.020898

>  <SCORE.INTRA.SOLV.lig_0>
-5.95779

>  <SCORE.INTRA.VDW>
-0.0189221

>  <SCORE.INTRA.VDW.0>
3.81702

>  <SCORE.INTRA.norm>
0.0196484

>  <SCORE.RESTR>
0.0137533

>  <SCORE.RESTR.CAVITY>
0.0137533

>  <SCORE.RESTR.norm>
0.000550134

>  <SCORE.SYSTEM>
0

>  <SCORE.SYSTEM.CONST>
0

>  <SCORE.SYSTEM.DIHEDRAL>
0

>  <SCORE.SYSTEM.SOLV>
0

>  <SCORE.SYSTEM.norm>
0

>  <SCORE.heavy>
25

>  <SCORE.norm>
-2.07673

>  <RMSD>
0.406

$$$$
1q8n_lig
 OpenBabel11021811403D
libRbt.so/2013.1/901 2013/11/27
 25 27  0  0  0  0  0  0  0  0999 V2000
    0.6534    1.0448   -1.9631 C   0  0  0  0  0  0  0  0  0  0  0  0
    0.6270    2.1718   -3.1441 C   0  0  0  0  0  0  0  0  0  0  0  0
   -1.2626    2.5690    3.4616 N   0  0  0  0  0  0  0  0  0  0  0  0
    1.3069    3.3415   -3.0764 C   0  0  0  0  0  0  0  0  0  0  0  0
    2.4862   -4.6031   -2.7725 N   0  0  0  0  0  0  0  0  0  0  0  0
    1.2514    4.3406   -4.1685 C   0  0  0  0  0  0  0  0  0  0  0  0
    0.5068    4.0906   -5.2699 C   0  0  0  0  0  0  0  0  0  0  0  0
   -0.2206    2.8466   -5.3655 C   0  0  0  0  0  0  0  0  0  0  0  0
   -0.1641    1.9546   -4.3733 C   0  0  0  0  0  0  0  0  0  0  0  0
    0.1277    1.4676   -0.4782 C   0  0  0  0  0  0  0  0  0  0  0  0
   -0.5129    2.6366   -0.2696 C   0  0  0  0  0  0  0  0  0  0  0  0
   -0.9997    3.0389    1.0791 C   0  0  0  0  0  0  0  0  0  0  0  0
   -0.8080    2.2204    2.1480 C   0  0  0  0  0  0  0  0  0  0  0  0
   -0.1111    0.9378    1.9350 C   0  0  0  0  0  0  0  0  0  0  0  0
    0.3222    0.5921    0.7146 C   0  0  0  0  0  0  0  0  0  0  0  0
    1.1972   -0.4967   -2.2403 C   0  0  0  0  0  0  0  0  0  0  0  0
    0.9247   -1.5781   -1.2314 C   0  0  0  0  0  0  0  0  0  0  0  0
    1.3265   -2.8410   -1.3986 C   0  0  0  0  0  0  0  0  0  0  0  0
    2.0695   -3.2431   -2.5986 C   0  0  0  0  0  0  0  0  0  0  0  0
    2.3459   -2.3096   -3.5328 C   0  0  0  0  0  0  0  0  0  0  0  0
    1.8980   -0.8873   -3.3564 C   0  0  0  0  0  0  0  0  0  0  0  0
   -2.0237    3.7538    3.7171 C   0  0  0  0  0  0  0  0  0  0  0  0
   -0.9617    1.7228    4.5745 C   0  0  0  0  0  0  0  0  0  0  0  0
    3.4333   -4.9464   -3.7940 C   0  0  0  0  0  0  0  0  0  0  0  0
    1.9741   -5.6585   -1.9279 C   0  0  0  0  0  0  0  0  0  0  0  0
  1  2  1  0  0  0  0
  1 10  1  0  0  0  0
  1 16  1  0  0  0  0
  2  4  2  0  0  0  0
  2  9  1  0  0  0  0
  4  6  1  0  0  0  0
  6  7  2  0  0  0  0
  7  8  1  0  0  0  0
  8  9  2  0  0  0  0
 10 11  2  0  0  0  0
 10 15  1  0  0  0  0
 11 12  1  0  0  0  0
 12 13  2  0  0  0  0
 13  3  1  0  0  0  0
 13 14  1  0  0  0  0
 14 15  2  0  0  0  0
 16 17  2  0  0  0  0
 16 21  1  0  0  0  0
 17 18  1  0  0  0  0
 18 19  2  0  0  0  0
 19  5  1  0  0  0  0
 19 20  1  0  0  0  0
 20 21  2  0  0  0  0
 22  3  1  0  0  0  0
 23  3  1  0  0  0  0
 24  5  1  0  0  0  0
 25  5  1  0  0  0  0
M  END
>  <CHROM.1>
59.79146763,10.63305978,-166.40007383,4.29421161,-167.36515200,0.61478496
0.43543904,-1.27609372,-3.11498546,-1.19503839,2.28922914

>  <Name>
1q8n_lig

>  <RI>
0

>  <Rbt.Current_Directory>
/home/itssahil/PROJECTS/Mol_Feturizer/New_Systems/rnas/1q8n

>  <Rbt.Executable>
rbdock ($Id: //depot/dev/client3/rdock/2013.1/src/exe/rbdock.cxx#4 $)

>  <Rbt.Library>
libRbt.so (2013.1, Build901 2013/11/27)

>  <Rbt.Parameter_File>
/export/apps/rDock/src/rDock_2013.1_src/data/scripts/dock_solv.prm

>  <Rbt.Receptor>
prm/pocket_docking_2.prm

>  <SCORE>
-52.3632

>  <SCORE.INTER>
-53.0466

>  <SCORE.INTER.CONST>
1

>  <SCORE.INTER.POLAR>
0

>  <SCORE.INTER.ROT>
5

>  <SCORE.INTER.SOLV>
10.5299

>  <SCORE.INTER.VDW>
-45.8077

>  <SCORE.INTER.norm>
-2.12186

>  <SCORE.INTRA>
0.56633

>  <SCORE.INTRA.DIHEDRAL>
0.681393

>  <SCORE.INTRA.DIHEDRAL.0>
2.1627

>  <SCORE.INTRA.POLAR>
0

>  <SCORE.INTRA.POLAR.0>
0

>  <SCORE.INTRA.REPUL>
0

>  <SCORE.INTRA.REPUL.0>
0

>  <SCORE.INTRA.SOLV>
0.0245167

>  <SCORE.INTRA.SOLV.lig_0>
-5.95779

>  <SCORE.INTRA.VDW>
0.213375

>  <SCORE.INTRA.VDW.0>
3.81702

>  <SCORE.INTRA.norm>
0.0226532

>  <SCORE.RESTR>
0.117082

>  <SCORE.RESTR.CAVITY>
0.117082

>  <SCORE.RESTR.norm>
0.00468326

>  <SCORE.SYSTEM>
0

>  <SCORE.SYSTEM.CONST>
0

>  <SCORE.SYSTEM.DIHEDRAL>
0

>  <SCORE.SYSTEM.SOLV>
0

>  <SCORE.SYSTEM.norm>
0

>  <SCORE.heavy>
25

>  <SCORE.norm>
-2.09453

>  <RMSD>
0.411

$$$$
1q8n_lig
 OpenBabel11021811403D
libRbt.so/2013.1/901 2013/11/27
 25 27  0  0  0  0  0  0  0  0999 V2000
    0.5026    1.1205   -1.9427 C   0  0  0  0  0  0  0  0  0  0  0  0
    0.4800    2.1664   -3.1961 C   0  0  0  0  0  0  0  0  0  0  0  0
    2.5693   -4.3829   -2.8716 N   0  0  0  0  0  0  0  0  0  0  0  0
   -0.2376    1.9626   -4.3268 C   0  0  0  0  0  0  0  0  0  0  0  0
   -1.2907    2.5128    3.6034 N   0  0  0  0  0  0  0  0  0  0  0  0
   -0.2259    2.9349   -5.4442 C   0  0  0  0  0  0  0  0  0  0  0  0
    0.5157    4.0619   -5.3458 C   0  0  0  0  0  0  0  0  0  0  0  0
    1.2830    4.3021   -4.1460 C   0  0  0  0  0  0  0  0  0  0  0  0
    1.2658    3.4170   -3.1463 C   0  0  0  0  0  0  0  0  0  0  0  0
    1.0700   -0.3864   -2.2024 C   0  0  0  0  0  0  0  0  0  0  0  0
    1.7985   -0.6800   -3.2994 C   0  0  0  0  0  0  0  0  0  0  0  0
    2.3246   -2.0500   -3.5528 C   0  0  0  0  0  0  0  0  0  0  0  0
    2.0798   -3.0518   -2.6663 C   0  0  0  0  0  0  0  0  0  0  0  0
    1.2864   -2.7454   -1.4610 C   0  0  0  0  0  0  0  0  0  0  0  0
    0.8189   -1.5071   -1.2494 C   0  0  0  0  0  0  0  0  0  0  0  0
   -0.0333    1.5542   -0.4348 C   0  0  0  0  0  0  0  0  0  0  0  0
    0.3047    0.6969    0.7536 C   0  0  0  0  0  0  0  0  0  0  0  0
   -0.0876    0.9950    1.9952 C   0  0  0  0  0  0  0  0  0  0  0  0
   -0.8846    2.1972    2.2659 C   0  0  0  0  0  0  0  0  0  0  0  0
   -1.2206    2.9980    1.2333 C   0  0  0  0  0  0  0  0  0  0  0  0
   -0.7840    2.6739   -0.1665 C   0  0  0  0  0  0  0  0  0  0  0  0
    3.5369   -4.6940   -3.8793 C   0  0  0  0  0  0  0  0  0  0  0  0
    2.0939   -5.4574   -2.0563 C   0  0  0  0  0  0  0  0  0  0  0  0
   -0.9780    1.6238    4.6851 C   0  0  0  0  0  0  0  0  0  0  0  0
   -2.0154    3.7278    3.9004 C   0  0  0  0  0  0  0  0  0  0  0  0
  1  2  1  0  0  0  0
  1 10  1  0  0  0  0
  1 16  1  0  0  0  0
  2  4  2  0  0  0  0
  2  9  1  0  0  0  0
  4  6  1  0  0  0  0
  6  7  2  0  0  0  0
  7  8  1  0  0  0  0
  8  9  2  0  0  0  0
 10 11  2  0  0  0  0
 10 15  1  0  0  0  0
 11 12  1  0  0  0  0
 12 13  2  0  0  0  0
 13  3  1  0  0  0  0
 13 14  1  0  0  0  0
 14 15  2  0  0  0  0
 16 17  2  0  0  0  0
 16 21  1  0  0  0  0
 17 18  1  0  0  0  0
 18 19  2  0  0  0  0
 19  5  1  0  0  0  0
 19 20  1  0  0  0  0
 20 21  2  0  0  0  0
 22  3  1  0  0  0  0
 23  3  1  0  0  0  0
 24  5  1  0  0  0  0
 25  5  1  0  0  0  0
M  END
>  <CHROM.1>
61.57688315,16.09764167,-165.22475602,11.49214873,-3.00508936,0.56995882
0.50870745,-1.26071965,0.08194054,1.18204451,-0.88359396

>  <Name>
1q8n_lig

>  <RI>
0

>  <Rbt.Current_Directory>
/home/itssahil/PROJECTS/Mol_Feturizer/New_Systems/rnas/1q8n

>  <Rbt.Executable>
rbdock ($Id: //depot/dev/client3/rdock/2013.1/src/exe/rbdock.cxx#4 $)

>  <Rbt.Library>
libRbt.so (2013.1, Build901 2013/11/27)

>  <Rbt.Parameter_File>
/export/apps/rDock/src/rDock_2013.1_src/data/scripts/dock_solv.prm

>  <Rbt.Receptor>
prm/pocket_docking_2.prm

>  <SCORE>
-53.3077

>  <SCORE.INTER>
-53.9718

>  <SCORE.INTER.CONST>
1

>  <SCORE.INTER.POLAR>
0

>  <SCORE.INTER.ROT>
5

>  <SCORE.INTER.SOLV>
10.5322

>  <SCORE.INTER.VDW>
-46.4253

>  <SCORE.INTER.norm>
-2.15887

>  <SCORE.INTRA>
0.363722

>  <SCORE.INTRA.DIHEDRAL>
0.541624

>  <SCORE.INTRA.DIHEDRAL.0>
2.1627

>  <SCORE.INTRA.POLAR>
0

>  <SCORE.INTRA.POLAR.0>
0

>  <SCORE.INTRA.REPUL>
0

>  <SCORE.INTRA.REPUL.0>
0

>  <SCORE.INTRA.SOLV>
0.0192487

>  <SCORE.INTRA.SOLV.lig_0>
-5.95779

>  <SCORE.INTRA.VDW>
0.0832856

>  <SCORE.INTRA.VDW.0>
3.81702

>  <SCORE.INTRA.norm>
0.0145489

>  <SCORE.RESTR>
0.300388

>  <SCORE.RESTR.CAVITY>
0.300388

>  <SCORE.RESTR.norm>
0.0120155

>  <SCORE.SYSTEM>
0

>  <SCORE.SYSTEM.CONST>
0

>  <SCORE.SYSTEM.DIHEDRAL>
0

>  <SCORE.SYSTEM.SOLV>
0

>  <SCORE.SYSTEM.norm>
0

>  <SCORE.heavy>
25

>  <SCORE.norm>
-2.13231

>  <RMSD>
0.423

$$$$
1q8n_lig
 OpenBabel11021811403D
libRbt.so/2013.1/901 2013/11/27
 25 27  0  0  0  0  0  0  0  0999 V2000
    0.6187    0.9563   -1.9349 C   0  0  0  0  0  0  0  0  0  0  0  0
    0.5932    2.0700   -3.1285 C   0  0  0  0  0  0  0  0  0  0  0  0
   -1.2853    2.5843    3.4638 N   0  0  0  0  0  0  0  0  0  0  0  0
    1.2625    3.2461   -3.0679 C   0  0  0  0  0  0  0  0  0  0  0  0
    2.4481   -4.7024   -2.6735 N   0  0  0  0  0  0  0  0  0  0  0  0
    1.2081    4.2326   -4.1714 C   0  0  0  0  0  0  0  0  0  0  0  0
    0.4752    3.9643   -5.2763 C   0  0  0  0  0  0  0  0  0  0  0  0
   -0.2409    2.7131   -5.3643 C   0  0  0  0  0  0  0  0  0  0  0  0
   -0.1854    1.8326   -4.3619 C   0  0  0  0  0  0  0  0  0  0  0  0
    0.0977    1.3974   -0.4537 C   0  0  0  0  0  0  0  0  0  0  0  0
    0.3095    0.6140    0.6242 C   0  0  0  0  0  0  0  0  0  0  0  0
   -0.1591    1.0007    1.9839 C   0  0  0  0  0  0  0  0  0  0  0  0
   -0.8198    2.1743    2.1719 C   0  0  0  0  0  0  0  0  0  0  0  0
   -1.0568    3.0424    1.0031 C   0  0  0  0  0  0  0  0  0  0  0  0
   -0.6299    2.6782   -0.2141 C   0  0  0  0  0  0  0  0  0  0  0  0
    1.1572   -0.5899   -2.1959 C   0  0  0  0  0  0  0  0  0  0  0  0
    0.9749   -1.6348   -1.1298 C   0  0  0  0  0  0  0  0  0  0  0  0
    1.3770   -2.8996   -1.2806 C   0  0  0  0  0  0  0  0  0  0  0  0
    2.0306   -3.3404   -2.5185 C   0  0  0  0  0  0  0  0  0  0  0  0
    2.2241   -2.4405   -3.5050 C   0  0  0  0  0  0  0  0  0  0  0  0
    1.7750   -1.0164   -3.3474 C   0  0  0  0  0  0  0  0  0  0  0  0
   -2.0405    3.7845    3.6580 C   0  0  0  0  0  0  0  0  0  0  0  0
   -1.0017    1.7869    4.6165 C   0  0  0  0  0  0  0  0  0  0  0  0
    1.9320   -5.7223   -1.8064 C   0  0  0  0  0  0  0  0  0  0  0  0
    3.3881   -5.0865   -3.7023 C   0  0  0  0  0  0  0  0  0  0  0  0
  1  2  1  0  0  0  0
  1 10  1  0  0  0  0
  1 16  1  0  0  0  0
  2  4  2  0  0  0  0
  2  9  1  0  0  0  0
  4  6  1  0  0  0  0
  6  7  2  0  0  0  0
  7  8  1  0  0  0  0
  8  9  2  0  0  0  0
 10 11  2  0  0  0  0
 10 15  1  0  0  0  0
 11 12  1  0  0  0  0
 12 13  2  0  0  0  0
 13  3  1  0  0  0  0
 13 14  1  0  0  0  0
 14 15  2  0  0  0  0
 16 17  2  0  0  0  0
 16 21  1  0  0  0  0
 17 18  1  0  0  0  0
 18 19  2  0  0  0  0
 19  5  1  0  0  0  0
 19 20  1  0  0  0  0
 20 21  2  0  0  0  0
 22  3  1  0  0  0  0
 23  3  1  0  0  0  0
 24  5  1  0  0  0  0
 25  5  1  0  0  0  0
M  END
>  <CHROM.1>
58.88444507,-168.10791110,-170.98286902,-176.73696390,16.73340043,0.57739998
0.37584647,-1.24678550,-3.11608617,-1.19763557,2.26733398

>  <Name>
1q8n_lig

>  <RI>
0

>  <Rbt.Current_Directory>
/home/itssahil/PROJECTS/Mol_Feturizer/New_Systems/rnas/1q8n

>  <Rbt.Executable>
rbdock ($Id: //depot/dev/client3/rdock/2013.1/src/exe/rbdock.cxx#4 $)

>  <Rbt.Library>
libRbt.so (2013.1, Build901 2013/11/27)

>  <Rbt.Parameter_File>
/export/apps/rDock/src/rDock_2013.1_src/data/scripts/dock_solv.prm

>  <Rbt.Receptor>
prm/pocket_docking_2.prm

>  <SCORE>
-52.417

>  <SCORE.INTER>
-53.2115

>  <SCORE.INTER.CONST>
1

>  <SCORE.INTER.POLAR>
0

>  <SCORE.INTER.ROT>
5

>  <SCORE.INTER.SOLV>
10.548

>  <SCORE.INTER.VDW>
-45.9237

>  <SCORE.INTER.norm>
-2.12846

>  <SCORE.INTRA>
0.736425

>  <SCORE.INTRA.DIHEDRAL>
1.1002

>  <SCORE.INTRA.DIHEDRAL.0>
2.1627

>  <SCORE.INTRA.POLAR>
0

>  <SCORE.INTRA.POLAR.0>
0

>  <SCORE.INTRA.REPUL>
0

>  <SCORE.INTRA.REPUL.0>
0

>  <SCORE.INTRA.SOLV>
0.0262181

>  <SCORE.INTRA.SOLV.lig_0>
-5.95779

>  <SCORE.INTRA.VDW>
0.173214

>  <SCORE.INTRA.VDW.0>
3.81702

>  <SCORE.INTRA.norm>
0.029457

>  <SCORE.RESTR>
0.0580265

>  <SCORE.RESTR.CAVITY>
0.0580265

>  <SCORE.RESTR.norm>
0.00232106

>  <SCORE.SYSTEM>
0

>  <SCORE.SYSTEM.CONST>
0

>  <SCORE.SYSTEM.DIHEDRAL>
0

>  <SCORE.SYSTEM.SOLV>
0

>  <SCORE.SYSTEM.norm>
0

>  <SCORE.heavy>
25

>  <SCORE.norm>
-2.09668

>  <RMSD>
0.433

$$$$
1q8n_lig
 OpenBabel11021811403D
libRbt.so/2013.1/901 2013/11/27
 25 27  0  0  0  0  0  0  0  0999 V2000
    0.6173    0.9608   -1.9346 C   0  0  0  0  0  0  0  0  0  0  0  0
    0.5980    2.0732   -3.1294 C   0  0  0  0  0  0  0  0  0  0  0  0
   -1.2712    2.5691    3.4755 N   0  0  0  0  0  0  0  0  0  0  0  0
    1.2753    3.2448   -3.0709 C   0  0  0  0  0  0  0  0  0  0  0  0
    2.4071   -4.7107   -2.6721 N   0  0  0  0  0  0  0  0  0  0  0  0
    1.2264    4.2304   -4.1755 C   0  0  0  0  0  0  0  0  0  0  0  0
    0.4905    3.9658   -5.2793 C   0  0  0  0  0  0  0  0  0  0  0  0
   -0.2340    2.7194   -5.3652 C   0  0  0  0  0  0  0  0  0  0  0  0
   -0.1835    1.8397   -4.3618 C   0  0  0  0  0  0  0  0  0  0  0  0
    0.0987    1.4065   -0.4539 C   0  0  0  0  0  0  0  0  0  0  0  0
   -0.6246    2.5314   -0.2754 C   0  0  0  0  0  0  0  0  0  0  0  0
   -1.1064    2.9537    1.0690 C   0  0  0  0  0  0  0  0  0  0  0  0
   -0.8249    2.1993    2.1648 C   0  0  0  0  0  0  0  0  0  0  0  0
   -0.0368    0.9654    1.9850 C   0  0  0  0  0  0  0  0  0  0  0  0
    0.3906    0.6009    0.7680 C   0  0  0  0  0  0  0  0  0  0  0  0
    1.1471   -0.5887   -2.1938 C   0  0  0  0  0  0  0  0  0  0  0  0
    0.9125   -1.6436   -1.1480 C   0  0  0  0  0  0  0  0  0  0  0  0
    1.3052   -2.9114   -1.2988 C   0  0  0  0  0  0  0  0  0  0  0  0
    1.9999   -3.3457   -2.5164 C   0  0  0  0  0  0  0  0  0  0  0  0
    2.2410   -2.4368   -3.4841 C   0  0  0  0  0  0  0  0  0  0  0  0
    1.8029   -1.0092   -3.3263 C   0  0  0  0  0  0  0  0  0  0  0  0
   -0.9995    1.7672    4.6294 C   0  0  0  0  0  0  0  0  0  0  0  0
   -2.0148    3.7754    3.6680 C   0  0  0  0  0  0  0  0  0  0  0  0
    1.8691   -5.7299   -1.8175 C   0  0  0  0  0  0  0  0  0  0  0  0
    3.3583   -5.0986   -3.6890 C   0  0  0  0  0  0  0  0  0  0  0  0
  1  2  1  0  0  0  0
  1 10  1  0  0  0  0
  1 16  1  0  0  0  0
  2  4  2  0  0  0  0
  2  9  1  0  0  0  0
  4  6  1  0  0  0  0
  6  7  2  0  0  0  0
  7  8  1  0  0  0  0
  8  9  2  0  0  0  0
 10 11  2  0  0  0  0
 10 15  1  0  0  0  0
 11 12  1  0  0  0  0
 12 13  2  0  0  0  0
 13  3  1  0  0  0  0
 13 14  1  0  0  0  0
 14 15  2  0  0  0  0
 16 17  2  0  0  0  0
 16 21  1  0  0  0  0
 17 18  1  0  0  0  0
 18 19  2  0  0  0  0
 19  5  1  0  0  0  0
 19 20  1  0  0  0  0
 20 21  2  0  0  0  0
 22  3  1  0  0  0  0
 23  3  1  0  0  0  0
 24  5  1  0  0  0  0
 25  5  1  0  0  0  0
M  END
>  <CHROM.1>
58.97455357,16.01002482,-168.67318818,178.83040918,15.33626548,0.57671445
0.36291781,-1.23953575,-3.11506605,-1.20223922,2.27515306

>  <Name>
1q8n_lig

>  <RI>
0

>  <Rbt.Current_Directory>
/home/itssahil/PROJECTS/Mol_Feturizer/New_Systems/rnas/1q8n

>  <Rbt.Executable>
rbdock ($Id: //depot/dev/client3/rdock/2013.1/src/exe/rbdock.cxx#4 $)

>  <Rbt.Library>
libRbt.so (2013.1, Build901 2013/11/27)

>  <Rbt.Parameter_File>
/export/apps/rDock/src/rDock_2013.1_src/data/scripts/dock_solv.prm

>  <Rbt.Receptor>
prm/pocket_docking_2.prm

>  <SCORE>
-52.5538

>  <SCORE.INTER>
-53.1001

>  <SCORE.INTER.CONST>
1

>  <SCORE.INTER.POLAR>
0

>  <SCORE.INTER.ROT>
5

>  <SCORE.INTER.SOLV>
10.5264

>  <SCORE.INTER.VDW>
-45.8422

>  <SCORE.INTER.norm>
-2.124

>  <SCORE.INTRA>
0.478321

>  <SCORE.INTRA.DIHEDRAL>
0.897219

>  <SCORE.INTRA.DIHEDRAL.0>
2.1627

>  <SCORE.INTRA.POLAR>
0

>  <SCORE.INTRA.POLAR.0>
0

>  <SCORE.INTRA.REPUL>
0

>  <SCORE.INTRA.REPUL.0>
0

>  <SCORE.INTRA.SOLV>
0.0234521

>  <SCORE.INTRA.SOLV.lig_0>
-5.95779

>  <SCORE.INTRA.VDW>
0.017986

>  <SCORE.INTRA.VDW.0>
3.81702

>  <SCORE.INTRA.norm>
0.0191329

>  <SCORE.RESTR>
0.0679583

>  <SCORE.RESTR.CAVITY>
0.0679583

>  <SCORE.RESTR.norm>
0.00271833

>  <SCORE.SYSTEM>
0

>  <SCORE.SYSTEM.CONST>
0

>  <SCORE.SYSTEM.DIHEDRAL>
0

>  <SCORE.SYSTEM.SOLV>
0

>  <SCORE.SYSTEM.norm>
0

>  <SCORE.heavy>
25

>  <SCORE.norm>
-2.10215

>  <RMSD>
0.435

$$$$
1q8n_lig
 OpenBabel11021811403D
libRbt.so/2013.1/901 2013/11/27
 25 27  0  0  0  0  0  0  0  0999 V2000
    0.5025    1.1202   -1.9393 C   0  0  0  0  0  0  0  0  0  0  0  0
    0.4790    2.1700   -3.1894 C   0  0  0  0  0  0  0  0  0  0  0  0
    2.5671   -4.3807   -2.8874 N   0  0  0  0  0  0  0  0  0  0  0  0
   -0.2298    1.9642   -4.3252 C   0  0  0  0  0  0  0  0  0  0  0  0
   -1.2889    2.4926    3.6123 N   0  0  0  0  0  0  0  0  0  0  0  0
   -0.2193    2.9402   -5.4393 C   0  0  0  0  0  0  0  0  0  0  0  0
    0.5125    4.0729   -5.3326 C   0  0  0  0  0  0  0  0  0  0  0  0
    1.2703    4.3154   -4.1273 C   0  0  0  0  0  0  0  0  0  0  0  0
    1.2542    3.4269   -3.1306 C   0  0  0  0  0  0  0  0  0  0  0  0
    1.0693   -0.3860   -2.2043 C   0  0  0  0  0  0  0  0  0  0  0  0
    1.7890   -0.6785   -3.3074 C   0  0  0  0  0  0  0  0  0  0  0  0
    2.3143   -2.0479   -3.5657 C   0  0  0  0  0  0  0  0  0  0  0  0
    2.0779   -3.0502   -2.6776 C   0  0  0  0  0  0  0  0  0  0  0  0
    1.2943   -2.7450   -1.4656 C   0  0  0  0  0  0  0  0  0  0  0  0
    0.8273   -1.5073   -1.2496 C   0  0  0  0  0  0  0  0  0  0  0  0
   -0.0319    1.5493   -0.4297 C   0  0  0  0  0  0  0  0  0  0  0  0
    0.2864    0.6755    0.7522 C   0  0  0  0  0  0  0  0  0  0  0  0
   -0.1057    0.9689    1.9949 C   0  0  0  0  0  0  0  0  0  0  0  0
   -0.8829    2.1822    2.2736 C   0  0  0  0  0  0  0  0  0  0  0  0
   -1.2008    2.9981    1.2471 C   0  0  0  0  0  0  0  0  0  0  0  0
   -0.7642    2.6793   -0.1539 C   0  0  0  0  0  0  0  0  0  0  0  0
    2.0907   -5.4980   -2.1302 C   0  0  0  0  0  0  0  0  0  0  0  0
    3.5646   -4.6316   -3.8809 C   0  0  0  0  0  0  0  0  0  0  0  0
   -0.9550    1.6114    4.6941 C   0  0  0  0  0  0  0  0  0  0  0  0
   -2.0347    3.6944    3.9105 C   0  0  0  0  0  0  0  0  0  0  0  0
  1  2  1  0  0  0  0
  1 10  1  0  0  0  0
  1 16  1  0  0  0  0
  2  4  2  0  0  0  0
  2  9  1  0  0  0  0
  4  6  1  0  0  0  0
  6  7  2  0  0  0  0
  7  8  1  0  0  0  0
  8  9  2  0  0  0  0
 10 11  2  0  0  0  0
 10 15  1  0  0  0  0
 11 12  1  0  0  0  0
 12 13  2  0  0  0  0
 13  3  1  0  0  0  0
 13 14  1  0  0  0  0
 14 15  2  0  0  0  0
 16 17  2  0  0  0  0
 16 21  1  0  0  0  0
 17 18  1  0  0  0  0
 18 19  2  0  0  0  0
 19  5  1  0  0  0  0
 19 20  1  0  0  0  0
 20 21  2  0  0  0  0
 22  3  1  0  0  0  0
 23  3  1  0  0  0  0
 24  5  1  0  0  0  0
 25  5  1  0  0  0  0
M  END
>  <CHROM.1>
60.94398168,15.63620041,-166.29650773,-166.01131052,-0.80882500,0.57066837
0.50642797,-1.26113658,0.08309815,1.18218705,-0.88074165

>  <Name>
1q8n_lig

>  <RI>
0

>  <Rbt.Current_Directory>
/home/itssahil/PROJECTS/Mol_Feturizer/New_Systems/rnas/1q8n

>  <Rbt.Executable>
rbdock ($Id: //depot/dev/client3/rdock/2013.1/src/exe/rbdock.cxx#4 $)

>  <Rbt.Library>
libRbt.so (2013.1, Build901 2013/11/27)

>  <Rbt.Parameter_File>
/export/apps/rDock/src/rDock_2013.1_src/data/scripts/dock_solv.prm

>  <Rbt.Receptor>
prm/pocket_docking_2.prm

>  <SCORE>
-53.3128

>  <SCORE.INTER>
-54.0571

>  <SCORE.INTER.CONST>
1

>  <SCORE.INTER.POLAR>
0

>  <SCORE.INTER.ROT>
5

>  <SCORE.INTER.SOLV>
10.5025

>  <SCORE.INTER.VDW>
-46.4722

>  <SCORE.INTER.norm>
-2.16228

>  <SCORE.INTRA>
0.433703

>  <SCORE.INTRA.DIHEDRAL>
0.748731

>  <SCORE.INTRA.DIHEDRAL.0>
2.1627

>  <SCORE.INTRA.POLAR>
0

>  <SCORE.INTRA.POLAR.0>
0

>  <SCORE.INTRA.REPUL>
0

>  <SCORE.INTRA.REPUL.0>
0

>  <SCORE.INTRA.SOLV>
0.020573

>  <SCORE.INTRA.SOLV.lig_0>
-5.95779

>  <SCORE.INTRA.VDW>
0.0490512

>  <SCORE.INTRA.VDW.0>
3.81702

>  <SCORE.INTRA.norm>
0.0173481

>  <SCORE.RESTR>
0.310519

>  <SCORE.RESTR.CAVITY>
0.310519

>  <SCORE.RESTR.norm>
0.0124207

>  <SCORE.SYSTEM>
0

>  <SCORE.SYSTEM.CONST>
0

>  <SCORE.SYSTEM.DIHEDRAL>
0

>  <SCORE.SYSTEM.SOLV>
0

>  <SCORE.SYSTEM.norm>
0

>  <SCORE.heavy>
25

>  <SCORE.norm>
-2.13251

>  <RMSD>
0.437

$$$$
1q8n_lig
 OpenBabel11021811403D
libRbt.so/2013.1/901 2013/11/27
 25 27  0  0  0  0  0  0  0  0999 V2000
    0.6369    1.0065   -1.9532 C   0  0  0  0  0  0  0  0  0  0  0  0
    0.6065    2.1224   -3.1445 C   0  0  0  0  0  0  0  0  0  0  0  0
   -1.2579    2.5822    3.4642 N   0  0  0  0  0  0  0  0  0  0  0  0
    1.2949    3.2880   -3.0947 C   0  0  0  0  0  0  0  0  0  0  0  0
    2.4689   -4.6486   -2.7128 N   0  0  0  0  0  0  0  0  0  0  0  0
    1.2353    4.2770   -4.1957 C   0  0  0  0  0  0  0  0  0  0  0  0
    0.4782    4.0218   -5.2873 C   0  0  0  0  0  0  0  0  0  0  0  0
   -0.2586    2.7819   -5.3638 C   0  0  0  0  0  0  0  0  0  0  0  0
   -0.1982    1.8991   -4.3638 C   0  0  0  0  0  0  0  0  0  0  0  0
    0.1174    1.4435   -0.4702 C   0  0  0  0  0  0  0  0  0  0  0  0
   -0.4388    2.6532   -0.2523 C   0  0  0  0  0  0  0  0  0  0  0  0
   -0.9186    3.0691    1.0948 C   0  0  0  0  0  0  0  0  0  0  0  0
   -0.8069    2.2218    2.1526 C   0  0  0  0  0  0  0  0  0  0  0  0
   -0.2028    0.8947    1.9293 C   0  0  0  0  0  0  0  0  0  0  0  0
    0.2255    0.5372    0.7106 C   0  0  0  0  0  0  0  0  0  0  0  0
    1.1788   -0.5378   -2.2181 C   0  0  0  0  0  0  0  0  0  0  0  0
    0.9424   -1.6010   -1.1811 C   0  0  0  0  0  0  0  0  0  0  0  0
    1.3444   -2.8653   -1.3369 C   0  0  0  0  0  0  0  0  0  0  0  0
    2.0517   -3.2872   -2.5516 C   0  0  0  0  0  0  0  0  0  0  0  0
    2.2949   -2.3705   -3.5113 C   0  0  0  0  0  0  0  0  0  0  0  0
    1.8464   -0.9468   -3.3479 C   0  0  0  0  0  0  0  0  0  0  0  0
   -2.0065    3.7765    3.7132 C   0  0  0  0  0  0  0  0  0  0  0  0
   -0.9661    1.7390    4.5818 C   0  0  0  0  0  0  0  0  0  0  0  0
    1.9349   -5.6758   -1.8653 C   0  0  0  0  0  0  0  0  0  0  0  0
    3.4263   -5.0247   -3.7283 C   0  0  0  0  0  0  0  0  0  0  0  0
  1  2  1  0  0  0  0
  1 10  1  0  0  0  0
  1 16  1  0  0  0  0
  2  4  2  0  0  0  0
  2  9  1  0  0  0  0
  4  6  1  0  0  0  0
  6  7  2  0  0  0  0
  7  8  1  0  0  0  0
  8  9  2  0  0  0  0
 10 11  2  0  0  0  0
 10 15  1  0  0  0  0
 11 12  1  0  0  0  0
 12 13  2  0  0  0  0
 13  3  1  0  0  0  0
 13 14  1  0  0  0  0
 14 15  2  0  0  0  0
 16 17  2  0  0  0  0
 16 21  1  0  0  0  0
 17 18  1  0  0  0  0
 18 19  2  0  0  0  0
 19  5  1  0  0  0  0
 19 20  1  0  0  0  0
 20 21  2  0  0  0  0
 22  3  1  0  0  0  0
 23  3  1  0  0  0  0
 24  5  1  0  0  0  0
 25  5  1  0  0  0  0
M  END
>  <CHROM.1>
60.28327147,6.01285319,-168.05976798,8.25919120,15.05416391,0.60065504,0.40357724
-1.25963056,-3.11710248,-1.19831712,2.27792778

>  <Name>
1q8n_lig

>  <RI>
0

>  <Rbt.Current_Directory>
/home/itssahil/PROJECTS/Mol_Feturizer/New_Systems/rnas/1q8n

>  <Rbt.Executable>
rbdock ($Id: //depot/dev/client3/rdock/2013.1/src/exe/rbdock.cxx#4 $)

>  <Rbt.Library>
libRbt.so (2013.1, Build901 2013/11/27)

>  <Rbt.Parameter_File>
/export/apps/rDock/src/rDock_2013.1_src/data/scripts/dock_solv.prm

>  <Rbt.Receptor>
prm/pocket_docking_2.prm

>  <SCORE>
-52.5159

>  <SCORE.INTER>
-53.3159

>  <SCORE.INTER.CONST>
1

>  <SCORE.INTER.POLAR>
0

>  <SCORE.INTER.ROT>
5

>  <SCORE.INTER.SOLV>
10.4958

>  <SCORE.INTER.VDW>
-45.9759

>  <SCORE.INTER.norm>
-2.13264

>  <SCORE.INTRA>
0.68682

>  <SCORE.INTRA.DIHEDRAL>
1.12491

>  <SCORE.INTRA.DIHEDRAL.0>
2.1627

>  <SCORE.INTRA.POLAR>
0

>  <SCORE.INTRA.POLAR.0>
0

>  <SCORE.INTRA.REPUL>
0

>  <SCORE.INTRA.REPUL.0>
0

>  <SCORE.INTRA.SOLV>
0.0272685

>  <SCORE.INTRA.SOLV.lig_0>
-5.95779

>  <SCORE.INTRA.VDW>
0.110732

>  <SCORE.INTRA.VDW.0>
3.81702

>  <SCORE.INTRA.norm>
0.0274728

>  <SCORE.RESTR>
0.113198

>  <SCORE.RESTR.CAVITY>
0.113198

>  <SCORE.RESTR.norm>
0.00452791

>  <SCORE.SYSTEM>
0

>  <SCORE.SYSTEM.CONST>
0

>  <SCORE.SYSTEM.DIHEDRAL>
0

>  <SCORE.SYSTEM.SOLV>
0

>  <SCORE.SYSTEM.norm>
0

>  <SCORE.heavy>
25

>  <SCORE.norm>
-2.10063

>  <RMSD>
0.439

$$$$
1q8n_lig
 OpenBabel11021811403D
libRbt.so/2013.1/901 2013/11/27
 25 27  0  0  0  0  0  0  0  0999 V2000
    0.5464    0.9665   -1.8983 C   0  0  0  0  0  0  0  0  0  0  0  0
    0.5153    2.0710   -3.1001 C   0  0  0  0  0  0  0  0  0  0  0  0
   -1.3067    2.6050    3.5150 N   0  0  0  0  0  0  0  0  0  0  0  0
   -0.1554    1.8914   -4.2632 C   0  0  0  0  0  0  0  0  0  0  0  0
    2.6081   -4.5519   -2.9984 N   0  0  0  0  0  0  0  0  0  0  0  0
   -0.1533    2.9173   -5.3316 C   0  0  0  0  0  0  0  0  0  0  0  0
    0.5315    4.0703   -5.1539 C   0  0  0  0  0  0  0  0  0  0  0  0
    1.2480    4.2851   -3.9183 C   0  0  0  0  0  0  0  0  0  0  0  0
    1.2400    3.3517   -2.9634 C   0  0  0  0  0  0  0  0  0  0  0  0
    0.0375    1.4204   -0.4167 C   0  0  0  0  0  0  0  0  0  0  0  0
   -0.6820    2.5480   -0.2394 C   0  0  0  0  0  0  0  0  0  0  0  0
   -1.1549    2.9778    1.1058 C   0  0  0  0  0  0  0  0  0  0  0  0
   -0.8689    2.2279    2.2035 C   0  0  0  0  0  0  0  0  0  0  0  0
   -0.0849    0.9912    2.0250 C   0  0  0  0  0  0  0  0  0  0  0  0
    0.3345    0.6199    0.8073 C   0  0  0  0  0  0  0  0  0  0  0  0
    1.0785   -0.5832   -2.1513 C   0  0  0  0  0  0  0  0  0  0  0  0
    1.8857   -0.9053   -3.3786 C   0  0  0  0  0  0  0  0  0  0  0  0
    2.3521   -2.1302   -3.6365 C   0  0  0  0  0  0  0  0  0  0  0  0
    2.0936   -3.2444   -2.7170 C   0  0  0  0  0  0  0  0  0  0  0  0
    1.3688   -3.0107   -1.6033 C   0  0  0  0  0  0  0  0  0  0  0  0
    0.8406   -1.6376   -1.3021 C   0  0  0  0  0  0  0  0  0  0  0  0
   -1.0264    1.8101    4.6717 C   0  0  0  0  0  0  0  0  0  0  0  0
   -2.0501    3.8118    3.7054 C   0  0  0  0  0  0  0  0  0  0  0  0
    3.6494   -4.7280   -3.9695 C   0  0  0  0  0  0  0  0  0  0  0  0
    2.1021   -5.7204   -2.3142 C   0  0  0  0  0  0  0  0  0  0  0  0
  1  2  1  0  0  0  0
  1 10  1  0  0  0  0
  1 16  1  0  0  0  0
  2  4  2  0  0  0  0
  2  9  1  0  0  0  0
  4  6  1  0  0  0  0
  6  7  2  0  0  0  0
  7  8  1  0  0  0  0
  8  9  2  0  0  0  0
 10 11  2  0  0  0  0
 10 15  1  0  0  0  0
 11 12  1  0  0  0  0
 12 13  2  0  0  0  0
 13  3  1  0  0  0  0
 13 14  1  0  0  0  0
 14 15  2  0  0  0  0
 16 17  2  0  0  0  0
 16 21  1  0  0  0  0
 17 18  1  0  0  0  0
 18 19  2  0  0  0  0
 19  5  1  0  0  0  0
 19 20  1  0  0  0  0
 20 21  2  0  0  0  0
 22  3  1  0  0  0  0
 23  3  1  0  0  0  0
 24  5  1  0  0  0  0
 25  5  1  0  0  0  0
M  END
>  <CHROM.1>
-123.07162451,15.68473096,16.60029437,179.04281187,16.11499571,0.60042037
0.43382407,-1.27954120,3.13782878,-1.18695312,2.28738107

>  <Name>
1q8n_lig

>  <RI>
0

>  <Rbt.Current_Directory>
/home/itssahil/PROJECTS/Mol_Feturizer/New_Systems/rnas/1q8n

>  <Rbt.Executable>
rbdock ($Id: //depot/dev/client3/rdock/2013.1/src/exe/rbdock.cxx#4 $)

>  <Rbt.Library>
libRbt.so (2013.1, Build901 2013/11/27)

>  <Rbt.Parameter_File>
/export/apps/rDock/src/rDock_2013.1_src/data/scripts/dock_solv.prm

>  <Rbt.Receptor>
prm/pocket_docking_2.prm

>  <SCORE>
-51.2933

>  <SCORE.INTER>
-51.667

>  <SCORE.INTER.CONST>
1

>  <SCORE.INTER.POLAR>
0

>  <SCORE.INTER.ROT>
5

>  <SCORE.INTER.SOLV>
10.6754

>  <SCORE.INTER.VDW>
-44.9365

>  <SCORE.INTER.norm>
-2.06668

>  <SCORE.INTRA>
0.268278

>  <SCORE.INTRA.DIHEDRAL>
0.984227

>  <SCORE.INTRA.DIHEDRAL.0>
2.1627

>  <SCORE.INTRA.POLAR>
0

>  <SCORE.INTRA.POLAR.0>
0

>  <SCORE.INTRA.REPUL>
0

>  <SCORE.INTRA.REPUL.0>
0

>  <SCORE.INTRA.SOLV>
0.016229

>  <SCORE.INTRA.SOLV.lig_0>
-5.95779

>  <SCORE.INTRA.VDW>
-0.23195

>  <SCORE.INTRA.VDW.0>
3.81702

>  <SCORE.INTRA.norm>
0.0107311

>  <SCORE.RESTR>
0.105402

>  <SCORE.RESTR.CAVITY>
0.105402

>  <SCORE.RESTR.norm>
0.00421609

>  <SCORE.SYSTEM>
0

>  <SCORE.SYSTEM.CONST>
0

>  <SCORE.SYSTEM.DIHEDRAL>
0

>  <SCORE.SYSTEM.SOLV>
0

>  <SCORE.SYSTEM.norm>
0

>  <SCORE.heavy>
25

>  <SCORE.norm>
-2.05173

>  <RMSD>
0.443

$$$$
1q8n_lig
 OpenBabel11021811403D
libRbt.so/2013.1/901 2013/11/27
 25 27  0  0  0  0  0  0  0  0999 V2000
    0.5266    1.1247   -1.9013 C   0  0  0  0  0  0  0  0  0  0  0  0
    0.4967    2.1731   -3.1526 C   0  0  0  0  0  0  0  0  0  0  0  0
    2.6117   -4.3619   -2.8864 N   0  0  0  0  0  0  0  0  0  0  0  0
   -0.2132    1.9630   -4.2869 C   0  0  0  0  0  0  0  0  0  0  0  0
   -1.2583    2.4937    3.6532 N   0  0  0  0  0  0  0  0  0  0  0  0
   -0.2085    2.9379   -5.4021 C   0  0  0  0  0  0  0  0  0  0  0  0
    0.5187    4.0738   -5.2979 C   0  0  0  0  0  0  0  0  0  0  0  0
    1.2776    4.3207   -4.0941 C   0  0  0  0  0  0  0  0  0  0  0  0
    1.2668    3.4332   -3.0964 C   0  0  0  0  0  0  0  0  0  0  0  0
    1.0966   -0.3803   -2.1663 C   0  0  0  0  0  0  0  0  0  0  0  0
    0.7855   -1.4013   -1.3410 C   0  0  0  0  0  0  0  0  0  0  0  0
    1.2968   -2.7816   -1.5674 C   0  0  0  0  0  0  0  0  0  0  0  0
    2.1004   -3.0477   -2.6317 C   0  0  0  0  0  0  0  0  0  0  0  0
    2.4474   -1.9417   -3.5441 C   0  0  0  0  0  0  0  0  0  0  0  0
    1.9800   -0.7048   -3.3245 C   0  0  0  0  0  0  0  0  0  0  0  0
   -0.0045    1.5541   -0.3906 C   0  0  0  0  0  0  0  0  0  0  0  0
    0.2847    0.6618    0.7849 C   0  0  0  0  0  0  0  0  0  0  0  0
   -0.1063    0.9543    2.0282 C   0  0  0  0  0  0  0  0  0  0  0  0
   -0.8533    2.1848    2.3138 C   0  0  0  0  0  0  0  0  0  0  0  0
   -1.1445    3.0178    1.2931 C   0  0  0  0  0  0  0  0  0  0  0  0
   -0.7088    2.7003   -0.1084 C   0  0  0  0  0  0  0  0  0  0  0  0
    3.5909   -4.6177   -3.8985 C   0  0  0  0  0  0  0  0  0  0  0  0
    2.1472   -5.4754   -2.1185 C   0  0  0  0  0  0  0  0  0  0  0  0
   -2.0071    3.6864    3.9276 C   0  0  0  0  0  0  0  0  0  0  0  0
   -0.9327    1.6181    4.7563 C   0  0  0  0  0  0  0  0  0  0  0  0
  1  2  1  0  0  0  0
  1 10  1  0  0  0  0
  1 16  1  0  0  0  0
  2  4  2  0  0  0  0
  2  9  1  0  0  0  0
  4  6  1  0  0  0  0
  6  7  2  0  0  0  0
  7  8  1  0  0  0  0
  8  9  2  0  0  0  0
 10 11  2  0  0  0  0
 10 15  1  0  0  0  0
 11 12  1  0  0  0  0
 12 13  2  0  0  0  0
 13  3  1  0  0  0  0
 13 14  1  0  0  0  0
 14 15  2  0  0  0  0
 16 17  2  0  0  0  0
 16 21  1  0  0  0  0
 17 18  1  0  0  0  0
 18 19  2  0  0  0  0
 19  5  1  0  0  0  0
 19 20  1  0  0  0  0
 20 21  2  0  0  0  0
 22  3  1  0  0  0  0
 23  3  1  0  0  0  0
 24  5  1  0  0  0  0
 25  5  1  0  0  0  0
M  END
>  <CHROM.1>
60.83622533,-159.37895845,-168.09499463,-171.80294495,-178.99539327,0.60302821
0.51645584,-1.24147435,0.09261019,1.18016081,-0.88232198

>  <Name>
1q8n_lig

>  <RI>
0

>  <Rbt.Current_Directory>
/home/itssahil/PROJECTS/Mol_Feturizer/New_Systems/rnas/1q8n

>  <Rbt.Executable>
rbdock ($Id: //depot/dev/client3/rdock/2013.1/src/exe/rbdock.cxx#4 $)

>  <Rbt.Library>
libRbt.so (2013.1, Build901 2013/11/27)

>  <Rbt.Parameter_File>
/export/apps/rDock/src/rDock_2013.1_src/data/scripts/dock_solv.prm

>  <Rbt.Receptor>
prm/pocket_docking_2.prm

>  <SCORE>
-52.9779

>  <SCORE.INTER>
-53.7388

>  <SCORE.INTER.CONST>
1

>  <SCORE.INTER.POLAR>
0

>  <SCORE.INTER.ROT>
5

>  <SCORE.INTER.SOLV>
10.5377

>  <SCORE.INTER.VDW>
-46.2717

>  <SCORE.INTER.norm>
-2.14955

>  <SCORE.INTRA>
0.433266

>  <SCORE.INTRA.DIHEDRAL>
0.263482

>  <SCORE.INTRA.DIHEDRAL.0>
2.1627

>  <SCORE.INTRA.POLAR>
0

>  <SCORE.INTRA.POLAR.0>
0

>  <SCORE.INTRA.REPUL>
0

>  <SCORE.INTRA.REPUL.0>
0

>  <SCORE.INTRA.SOLV>
0.0169401

>  <SCORE.INTRA.SOLV.lig_0>
-5.95779

>  <SCORE.INTRA.VDW>
0.293055

>  <SCORE.INTRA.VDW.0>
3.81702

>  <SCORE.INTRA.norm>
0.0173307

>  <SCORE.RESTR>
0.327585

>  <SCORE.RESTR.CAVITY>
0.327585

>  <SCORE.RESTR.norm>
0.0131034

>  <SCORE.SYSTEM>
0

>  <SCORE.SYSTEM.CONST>
0

>  <SCORE.SYSTEM.DIHEDRAL>
0

>  <SCORE.SYSTEM.SOLV>
0

>  <SCORE.SYSTEM.norm>
0

>  <SCORE.heavy>
25

>  <SCORE.norm>
-2.11912

>  <RMSD>
0.448

$$$$
1q8n_lig
 OpenBabel11021811403D
libRbt.so/2013.1/901 2013/11/27
 25 27  0  0  0  0  0  0  0  0999 V2000
    0.5777    0.9410   -1.8678 C   0  0  0  0  0  0  0  0  0  0  0  0
    0.5171    2.0033   -3.1061 C   0  0  0  0  0  0  0  0  0  0  0  0
    2.6051   -4.5445   -2.9730 N   0  0  0  0  0  0  0  0  0  0  0  0
   -0.1639    1.7746   -4.2545 C   0  0  0  0  0  0  0  0  0  0  0  0
   -1.3067    2.6258    3.5657 N   0  0  0  0  0  0  0  0  0  0  0  0
   -0.1885    2.7634   -5.3570 C   0  0  0  0  0  0  0  0  0  0  0  0
    0.4815    3.9313   -5.2266 C   0  0  0  0  0  0  0  0  0  0  0  0
    1.2085    4.1982   -4.0076 C   0  0  0  0  0  0  0  0  0  0  0  0
    1.2247    3.2980   -3.0214 C   0  0  0  0  0  0  0  0  0  0  0  0
    1.1322   -0.5637   -2.1656 C   0  0  0  0  0  0  0  0  0  0  0  0
    0.8655   -1.5861   -1.3265 C   0  0  0  0  0  0  0  0  0  0  0  0
    1.3634   -2.9661   -1.5825 C   0  0  0  0  0  0  0  0  0  0  0  0
    2.1086   -3.2305   -2.6889 C   0  0  0  0  0  0  0  0  0  0  0  0
    2.4065   -2.1231   -3.6167 C   0  0  0  0  0  0  0  0  0  0  0  0
    1.9519   -0.8865   -3.3702 C   0  0  0  0  0  0  0  0  0  0  0  0
    0.0924    1.3560   -0.3378 C   0  0  0  0  0  0  0  0  0  0  0  0
   -0.6448    2.6471   -0.1119 C   0  0  0  0  0  0  0  0  0  0  0  0
   -1.0712    3.0352    1.0930 C   0  0  0  0  0  0  0  0  0  0  0  0
   -0.8354    2.2046    2.2797 C   0  0  0  0  0  0  0  0  0  0  0  0
   -0.1727    1.0385    2.1332 C   0  0  0  0  0  0  0  0  0  0  0  0
    0.3100    0.5912    0.7835 C   0  0  0  0  0  0  0  0  0  0  0  0
    2.1043   -5.7100   -2.3102 C   0  0  0  0  0  0  0  0  0  0  0  0
    3.6351   -4.7286   -3.9479 C   0  0  0  0  0  0  0  0  0  0  0  0
   -2.0667    3.8353    3.6991 C   0  0  0  0  0  0  0  0  0  0  0  0
   -1.0382    1.8487    4.7546 C   0  0  0  0  0  0  0  0  0  0  0  0
  1  2  1  0  0  0  0
  1 10  1  0  0  0  0
  1 16  1  0  0  0  0
  2  4  2  0  0  0  0
  2  9  1  0  0  0  0
  4  6  1  0  0  0  0
  6  7  2  0  0  0  0
  7  8  1  0  0  0  0
  8  9  2  0  0  0  0
 10 11  2  0  0  0  0
 10 15  1  0  0  0  0
 11 12  1  0  0  0  0
 12 13  2  0  0  0  0
 13  3  1  0  0  0  0
 13 14  1  0  0  0  0
 14 15  2  0  0  0  0
 16 17  2  0  0  0  0
 16 21  1  0  0  0  0
 17 18  1  0  0  0  0
 18 19  2  0  0  0  0
 19  5  1  0  0  0  0
 19 20  1  0  0  0  0
 20 21  2  0  0  0  0
 22  3  1  0  0  0  0
 23  3  1  0  0  0  0
 24  5  1  0  0  0  0
 25  5  1  0  0  0  0
M  END
>  <CHROM.1>
56.85331677,-160.92626074,10.96220562,15.11720296,2.79004912,0.60546772,0.42286847
-1.26505283,0.05063474,1.18713339,-0.88165256

>  <Name>
1q8n_lig

>  <RI>
0

>  <Rbt.Current_Directory>
/home/itssahil/PROJECTS/Mol_Feturizer/New_Systems/rnas/1q8n

>  <Rbt.Executable>
rbdock ($Id: //depot/dev/client3/rdock/2013.1/src/exe/rbdock.cxx#4 $)

>  <Rbt.Library>
libRbt.so (2013.1, Build901 2013/11/27)

>  <Rbt.Parameter_File>
/export/apps/rDock/src/rDock_2013.1_src/data/scripts/dock_solv.prm

>  <Rbt.Receptor>
prm/pocket_docking_2.prm

>  <SCORE>
-52.0432

>  <SCORE.INTER>
-52.4606

>  <SCORE.INTER.CONST>
1

>  <SCORE.INTER.POLAR>
0

>  <SCORE.INTER.ROT>
5

>  <SCORE.INTER.SOLV>
10.5557

>  <SCORE.INTER.VDW>
-45.4256

>  <SCORE.INTER.norm>
-2.09842

>  <SCORE.INTRA>
0.318302

>  <SCORE.INTRA.DIHEDRAL>
0.89858

>  <SCORE.INTRA.DIHEDRAL.0>
2.1627

>  <SCORE.INTRA.POLAR>
0

>  <SCORE.INTRA.POLAR.0>
0

>  <SCORE.INTRA.REPUL>
0

>  <SCORE.INTRA.REPUL.0>
0

>  <SCORE.INTRA.SOLV>
0.0166305

>  <SCORE.INTRA.SOLV.lig_0>
-5.95779

>  <SCORE.INTRA.VDW>
-0.139304

>  <SCORE.INTRA.VDW.0>
3.81702

>  <SCORE.INTRA.norm>
0.0127321

>  <SCORE.RESTR>
0.0991319

>  <SCORE.RESTR.CAVITY>
0.0991319

>  <SCORE.RESTR.norm>
0.00396528

>  <SCORE.SYSTEM>
0

>  <SCORE.SYSTEM.CONST>
0

>  <SCORE.SYSTEM.DIHEDRAL>
0

>  <SCORE.SYSTEM.SOLV>
0

>  <SCORE.SYSTEM.norm>
0

>  <SCORE.heavy>
25

>  <SCORE.norm>
-2.08173

>  <RMSD>
0.459

$$$$
1q8n_lig
 OpenBabel11021811403D
libRbt.so/2013.1/901 2013/11/27
 25 27  0  0  0  0  0  0  0  0999 V2000
    0.5756    0.9404   -1.8714 C   0  0  0  0  0  0  0  0  0  0  0  0
    0.5185    2.0058   -3.1071 C   0  0  0  0  0  0  0  0  0  0  0  0
    2.6053   -4.5426   -2.9846 N   0  0  0  0  0  0  0  0  0  0  0  0
   -0.1419    1.7712   -4.2663 C   0  0  0  0  0  0  0  0  0  0  0  0
   -1.3188    2.6153    3.5617 N   0  0  0  0  0  0  0  0  0  0  0  0
   -0.1641    2.7631   -5.3661 C   0  0  0  0  0  0  0  0  0  0  0  0
    0.4872    3.9400   -5.2221 C   0  0  0  0  0  0  0  0  0  0  0  0
    1.1921    4.2132   -3.9915 C   0  0  0  0  0  0  0  0  0  0  0  0
    1.2063    3.3100   -3.0080 C   0  0  0  0  0  0  0  0  0  0  0  0
    1.1307   -0.5636   -2.1714 C   0  0  0  0  0  0  0  0  0  0  0  0
    0.8630   -1.5877   -1.3348 C   0  0  0  0  0  0  0  0  0  0  0  0
    1.3615   -2.9672   -1.5928 C   0  0  0  0  0  0  0  0  0  0  0  0
    2.1083   -3.2292   -2.6986 C   0  0  0  0  0  0  0  0  0  0  0  0
    2.4073   -2.1199   -3.6238 C   0  0  0  0  0  0  0  0  0  0  0  0
    1.9522   -0.8838   -3.3754 C   0  0  0  0  0  0  0  0  0  0  0  0
    0.0863    1.3517   -0.3416 C   0  0  0  0  0  0  0  0  0  0  0  0
   -0.6252    2.6562   -0.1099 C   0  0  0  0  0  0  0  0  0  0  0  0
   -1.0535    3.0423    1.0950 C   0  0  0  0  0  0  0  0  0  0  0  0
   -0.8455    2.1960    2.2758 C   0  0  0  0  0  0  0  0  0  0  0  0
   -0.2066    1.0173    2.1240 C   0  0  0  0  0  0  0  0  0  0  0  0
    0.2779    0.5722    0.7742 C   0  0  0  0  0  0  0  0  0  0  0  0
    2.1065   -5.7091   -2.3222 C   0  0  0  0  0  0  0  0  0  0  0  0
    3.6340   -4.7250   -3.9612 C   0  0  0  0  0  0  0  0  0  0  0  0
   -2.0823    3.8227    3.6952 C   0  0  0  0  0  0  0  0  0  0  0  0
   -1.0487    1.8386    4.7505 C   0  0  0  0  0  0  0  0  0  0  0  0
  1  2  1  0  0  0  0
  1 10  1  0  0  0  0
  1 16  1  0  0  0  0
  2  4  2  0  0  0  0
  2  9  1  0  0  0  0
  4  6  1  0  0  0  0
  6  7  2  0  0  0  0
  7  8  1  0  0  0  0
  8  9  2  0  0  0  0
 10 11  2  0  0  0  0
 10 15  1  0  0  0  0
 11 12  1  0  0  0  0
 12 13  2  0  0  0  0
 13  3  1  0  0  0  0
 13 14  1  0  0  0  0
 14 15  2  0  0  0  0
 16 17  2  0  0  0  0
 16 21  1  0  0  0  0
 17 18  1  0  0  0  0
 18 19  2  0  0  0  0
 19  5  1  0  0  0  0
 19 20  1  0  0  0  0
 20 21  2  0  0  0  0
 22  3  1  0  0  0  0
 23  3  1  0  0  0  0
 24  5  1  0  0  0  0
 25  5  1  0  0  0  0
M  END
>  <CHROM.1>
55.77349652,-161.00495845,9.64213073,14.93276112,4.33474120,0.60257301,0.42177121
-1.26953361,0.04434792,1.18634586,-0.87382122

>  <Name>
1q8n_lig

>  <RI>
0

>  <Rbt.Current_Directory>
/home/itssahil/PROJECTS/Mol_Feturizer/New_Systems/rnas/1q8n

>  <Rbt.Executable>
rbdock ($Id: //depot/dev/client3/rdock/2013.1/src/exe/rbdock.cxx#4 $)

>  <Rbt.Library>
libRbt.so (2013.1, Build901 2013/11/27)

>  <Rbt.Parameter_File>
/export/apps/rDock/src/rDock_2013.1_src/data/scripts/dock_solv.prm

>  <Rbt.Receptor>
prm/pocket_docking_2.prm

>  <SCORE>
-51.9655

>  <SCORE.INTER>
-52.3995

>  <SCORE.INTER.CONST>
1

>  <SCORE.INTER.POLAR>
0

>  <SCORE.INTER.ROT>
5

>  <SCORE.INTER.SOLV>
10.5475

>  <SCORE.INTER.VDW>
-45.3822

>  <SCORE.INTER.norm>
-2.09598

>  <SCORE.INTRA>
0.338808

>  <SCORE.INTRA.DIHEDRAL>
0.920714

>  <SCORE.INTRA.DIHEDRAL.0>
2.1627

>  <SCORE.INTRA.POLAR>
0

>  <SCORE.INTRA.POLAR.0>
0

>  <SCORE.INTRA.REPUL>
0

>  <SCORE.INTRA.REPUL.0>
0

>  <SCORE.INTRA.SOLV>
0.0189432

>  <SCORE.INTRA.SOLV.lig_0>
-5.95779

>  <SCORE.INTRA.VDW>
-0.131021

>  <SCORE.INTRA.VDW.0>
3.81702

>  <SCORE.INTRA.norm>
0.0135523

>  <SCORE.RESTR>
0.0951724

>  <SCORE.RESTR.CAVITY>
0.0951724

>  <SCORE.RESTR.norm>
0.0038069

>  <SCORE.SYSTEM>
0

>  <SCORE.SYSTEM.CONST>
0

>  <SCORE.SYSTEM.DIHEDRAL>
0

>  <SCORE.SYSTEM.SOLV>
0

>  <SCORE.SYSTEM.norm>
0

>  <SCORE.heavy>
25

>  <SCORE.norm>
-2.07862

>  <RMSD>
0.464

$$$$
1q8n_lig
 OpenBabel11021811403D
libRbt.so/2013.1/901 2013/11/27
 25 27  0  0  0  0  0  0  0  0999 V2000
    0.5218    1.1326   -1.9029 C   0  0  0  0  0  0  0  0  0  0  0  0
    0.5089    2.1893   -3.1473 C   0  0  0  0  0  0  0  0  0  0  0  0
    2.5509   -4.3773   -2.8756 N   0  0  0  0  0  0  0  0  0  0  0  0
    1.2145    3.3457   -3.1533 C   0  0  0  0  0  0  0  0  0  0  0  0
   -1.2718    2.4896    3.6517 N   0  0  0  0  0  0  0  0  0  0  0  0
    1.1706    4.2806   -4.3013 C   0  0  0  0  0  0  0  0  0  0  0  0
    0.4107    3.9836   -5.3804 C   0  0  0  0  0  0  0  0  0  0  0  0
   -0.3443    2.7525   -5.3975 C   0  0  0  0  0  0  0  0  0  0  0  0
   -0.2979    1.9187   -4.3555 C   0  0  0  0  0  0  0  0  0  0  0  0
    1.0787   -0.3761   -2.1747 C   0  0  0  0  0  0  0  0  0  0  0  0
    1.7735   -0.6744   -3.2921 C   0  0  0  0  0  0  0  0  0  0  0  0
    2.2895   -2.0462   -3.5567 C   0  0  0  0  0  0  0  0  0  0  0  0
    2.0698   -3.0447   -2.6600 C   0  0  0  0  0  0  0  0  0  0  0  0
    1.3136   -2.7331   -1.4324 C   0  0  0  0  0  0  0  0  0  0  0  0
    0.8547   -1.4933   -1.2109 C   0  0  0  0  0  0  0  0  0  0  0  0
   -0.0136    1.5571   -0.3924 C   0  0  0  0  0  0  0  0  0  0  0  0
    0.3126    0.6851    0.7886 C   0  0  0  0  0  0  0  0  0  0  0  0
   -0.0799    0.9752    2.0321 C   0  0  0  0  0  0  0  0  0  0  0  0
   -0.8654    2.1827    2.3123 C   0  0  0  0  0  0  0  0  0  0  0  0
   -1.1906    2.9968    1.2866 C   0  0  0  0  0  0  0  0  0  0  0  0
   -0.7537    2.6817   -0.1151 C   0  0  0  0  0  0  0  0  0  0  0  0
    3.4941   -4.6917   -3.9051 C   0  0  0  0  0  0  0  0  0  0  0  0
    2.0915   -5.4499   -2.0488 C   0  0  0  0  0  0  0  0  0  0  0  0
   -2.0212    3.6817    3.9271 C   0  0  0  0  0  0  0  0  0  0  0  0
   -0.9471    1.6125    4.7539 C   0  0  0  0  0  0  0  0  0  0  0  0
  1  2  1  0  0  0  0
  1 10  1  0  0  0  0
  1 16  1  0  0  0  0
  2  4  2  0  0  0  0
  2  9  1  0  0  0  0
  4  6  1  0  0  0  0
  6  7  2  0  0  0  0
  7  8  1  0  0  0  0
  8  9  2  0  0  0  0
 10 11  2  0  0  0  0
 10 15  1  0  0  0  0
 11 12  1  0  0  0  0
 12 13  2  0  0  0  0
 13  3  1  0  0  0  0
 13 14  1  0  0  0  0
 14 15  2  0  0  0  0
 16 17  2  0  0  0  0
 16 21  1  0  0  0  0
 17 18  1  0  0  0  0
 18 19  2  0  0  0  0
 19  5  1  0  0  0  0
 19 20  1  0  0  0  0
 20 21  2  0  0  0  0
 22  3  1  0  0  0  0
 23  3  1  0  0  0  0
 24  5  1  0  0  0  0
 25  5  1  0  0  0  0
M  END
>  <CHROM.1>
-118.40429330,14.12578487,-165.40345018,11.92485734,178.98824685,0.55770527
0.49206480,-1.24483721,0.13964412,1.18453062,-0.92516611

>  <Name>
1q8n_lig

>  <RI>
0

>  <Rbt.Current_Directory>
/home/itssahil/PROJECTS/Mol_Feturizer/New_Systems/rnas/1q8n

>  <Rbt.Executable>
rbdock ($Id: //depot/dev/client3/rdock/2013.1/src/exe/rbdock.cxx#4 $)

>  <Rbt.Library>
libRbt.so (2013.1, Build901 2013/11/27)

>  <Rbt.Parameter_File>
/export/apps/rDock/src/rDock_2013.1_src/data/scripts/dock_solv.prm

>  <Rbt.Receptor>
prm/pocket_docking_2.prm

>  <SCORE>
-53.7573

>  <SCORE.INTER>
-54.5459

>  <SCORE.INTER.CONST>
1

>  <SCORE.INTER.POLAR>
0

>  <SCORE.INTER.ROT>
5

>  <SCORE.INTER.SOLV>
10.4264

>  <SCORE.INTER.VDW>
-46.7727

>  <SCORE.INTER.norm>
-2.18184

>  <SCORE.INTRA>
0.461541

>  <SCORE.INTRA.DIHEDRAL>
0.548776

>  <SCORE.INTRA.DIHEDRAL.0>
2.1627

>  <SCORE.INTRA.POLAR>
0

>  <SCORE.INTRA.POLAR.0>
0

>  <SCORE.INTRA.REPUL>
0

>  <SCORE.INTRA.REPUL.0>
0

>  <SCORE.INTRA.SOLV>
0.0218056

>  <SCORE.INTRA.SOLV.lig_0>
-5.95779

>  <SCORE.INTRA.VDW>
0.17625

>  <SCORE.INTRA.VDW.0>
3.81702

>  <SCORE.INTRA.norm>
0.0184616

>  <SCORE.RESTR>
0.327102

>  <SCORE.RESTR.CAVITY>
0.327102

>  <SCORE.RESTR.norm>
0.0130841

>  <SCORE.SYSTEM>
0

>  <SCORE.SYSTEM.CONST>
0

>  <SCORE.SYSTEM.DIHEDRAL>
0

>  <SCORE.SYSTEM.SOLV>
0

>  <SCORE.SYSTEM.norm>
0

>  <SCORE.heavy>
25

>  <SCORE.norm>
-2.15029

>  <RMSD>
0.468

$$$$
1q8n_lig
 OpenBabel11021811403D
libRbt.so/2013.1/901 2013/11/27
 25 27  0  0  0  0  0  0  0  0999 V2000
    0.5357    0.9252   -1.8689 C   0  0  0  0  0  0  0  0  0  0  0  0
    0.4974    2.0287   -3.0715 C   0  0  0  0  0  0  0  0  0  0  0  0
   -1.3060    2.5621    3.5487 N   0  0  0  0  0  0  0  0  0  0  0  0
   -0.2049    1.8612   -4.2176 C   0  0  0  0  0  0  0  0  0  0  0  0
    2.6048   -4.5890   -2.9762 N   0  0  0  0  0  0  0  0  0  0  0  0
   -0.2082    2.8856   -5.2874 C   0  0  0  0  0  0  0  0  0  0  0  0
    0.5038    4.0248   -5.1284 C   0  0  0  0  0  0  0  0  0  0  0  0
    1.2544    4.2265   -3.9111 C   0  0  0  0  0  0  0  0  0  0  0  0
    1.2509    3.2946   -2.9547 C   0  0  0  0  0  0  0  0  0  0  0  0
    0.0298    1.3787   -0.3861 C   0  0  0  0  0  0  0  0  0  0  0  0
   -0.6967    2.5015   -0.2081 C   0  0  0  0  0  0  0  0  0  0  0  0
   -1.1670    2.9309    1.1381 C   0  0  0  0  0  0  0  0  0  0  0  0
   -0.8711    2.1854    2.2362 C   0  0  0  0  0  0  0  0  0  0  0  0
   -0.0793    0.9538    2.0570 C   0  0  0  0  0  0  0  0  0  0  0  0
    0.3376    0.5829    0.8383 C   0  0  0  0  0  0  0  0  0  0  0  0
    1.0719   -0.6231   -2.1223 C   0  0  0  0  0  0  0  0  0  0  0  0
    1.8379   -0.9533   -3.3736 C   0  0  0  0  0  0  0  0  0  0  0  0
    2.3055   -2.1773   -3.6334 C   0  0  0  0  0  0  0  0  0  0  0  0
    2.0893   -3.2824   -2.6923 C   0  0  0  0  0  0  0  0  0  0  0  0
    1.4023   -3.0412   -1.5563 C   0  0  0  0  0  0  0  0  0  0  0  0
    0.8733   -1.6690   -1.2529 C   0  0  0  0  0  0  0  0  0  0  0  0
   -1.0213    1.7681    4.7050 C   0  0  0  0  0  0  0  0  0  0  0  0
   -2.0509    3.7677    3.7407 C   0  0  0  0  0  0  0  0  0  0  0  0
    2.0840   -5.7382   -2.2933 C   0  0  0  0  0  0  0  0  0  0  0  0
    3.6506   -4.7866   -3.9543 C   0  0  0  0  0  0  0  0  0  0  0  0
  1  2  1  0  0  0  0
  1 10  1  0  0  0  0
  1 16  1  0  0  0  0
  2  4  2  0  0  0  0
  2  9  1  0  0  0  0
  4  6  1  0  0  0  0
  6  7  2  0  0  0  0
  7  8  1  0  0  0  0
  8  9  2  0  0  0  0
 10 11  2  0  0  0  0
 10 15  1  0  0  0  0
 11 12  1  0  0  0  0
 12 13  2  0  0  0  0
 13  3  1  0  0  0  0
 13 14  1  0  0  0  0
 14 15  2  0  0  0  0
 16 17  2  0  0  0  0
 16 21  1  0  0  0  0
 17 18  1  0  0  0  0
 18 19  2  0  0  0  0
 19  5  1  0  0  0  0
 19 20  1  0  0  0  0
 20 21  2  0  0  0  0
 22  3  1  0  0  0  0
 23  3  1  0  0  0  0
 24  5  1  0  0  0  0
 25  5  1  0  0  0  0
M  END
>  <CHROM.1>
-121.25973789,15.92815813,14.61556178,178.71053648,-161.58916659,0.59156424
0.39239546,-1.25169464,3.12445041,-1.18746111,2.27530526

>  <Name>
1q8n_lig

>  <RI>
0

>  <Rbt.Current_Directory>
/home/itssahil/PROJECTS/Mol_Feturizer/New_Systems/rnas/1q8n

>  <Rbt.Executable>
rbdock ($Id: //depot/dev/client3/rdock/2013.1/src/exe/rbdock.cxx#4 $)

>  <Rbt.Library>
libRbt.so (2013.1, Build901 2013/11/27)

>  <Rbt.Parameter_File>
/export/apps/rDock/src/rDock_2013.1_src/data/scripts/dock_solv.prm

>  <Rbt.Receptor>
prm/pocket_docking_2.prm

>  <SCORE>
-51.3346

>  <SCORE.INTER>
-51.8441

>  <SCORE.INTER.CONST>
1

>  <SCORE.INTER.POLAR>
0

>  <SCORE.INTER.ROT>
5

>  <SCORE.INTER.SOLV>
10.6295

>  <SCORE.INTER.VDW>
-45.0392

>  <SCORE.INTER.norm>
-2.07376

>  <SCORE.INTRA>
0.368708

>  <SCORE.INTRA.DIHEDRAL>
1.2777

>  <SCORE.INTRA.DIHEDRAL.0>
2.1627

>  <SCORE.INTRA.POLAR>
0

>  <SCORE.INTRA.POLAR.0>
0

>  <SCORE.INTRA.REPUL>
0

>  <SCORE.INTRA.REPUL.0>
0

>  <SCORE.INTRA.SOLV>
0.0146219

>  <SCORE.INTRA.SOLV.lig_0>
-5.95779

>  <SCORE.INTRA.VDW>
-0.277453

>  <SCORE.INTRA.VDW.0>
3.81702

>  <SCORE.INTRA.norm>
0.0147483

>  <SCORE.RESTR>
0.140747

>  <SCORE.RESTR.CAVITY>
0.140747

>  <SCORE.RESTR.norm>
0.00562989

>  <SCORE.SYSTEM>
0

>  <SCORE.SYSTEM.CONST>
0

>  <SCORE.SYSTEM.DIHEDRAL>
0

>  <SCORE.SYSTEM.SOLV>
0

>  <SCORE.SYSTEM.norm>
0

>  <SCORE.heavy>
25

>  <SCORE.norm>
-2.05338

>  <RMSD>
0.469

$$$$
1q8n_lig
 OpenBabel11021811403D
libRbt.so/2013.1/901 2013/11/27
 25 27  0  0  0  0  0  0  0  0999 V2000
    0.5474    0.9641   -1.8958 C   0  0  0  0  0  0  0  0  0  0  0  0
    0.5132    2.0684   -3.0979 C   0  0  0  0  0  0  0  0  0  0  0  0
   -1.2999    2.6019    3.5196 N   0  0  0  0  0  0  0  0  0  0  0  0
   -0.1730    1.8949   -4.2529 C   0  0  0  0  0  0  0  0  0  0  0  0
    2.6103   -4.5531   -2.9993 N   0  0  0  0  0  0  0  0  0  0  0  0
   -0.1732    2.9203   -5.3218 C   0  0  0  0  0  0  0  0  0  0  0  0
    0.5253    4.0664   -5.1529 C   0  0  0  0  0  0  0  0  0  0  0  0
    1.2584    4.2745   -3.9261 C   0  0  0  0  0  0  0  0  0  0  0  0
    1.2523    3.3417   -2.9706 C   0  0  0  0  0  0  0  0  0  0  0  0
    0.0409    1.4181   -0.4134 C   0  0  0  0  0  0  0  0  0  0  0  0
   -0.5196    2.6277   -0.2059 C   0  0  0  0  0  0  0  0  0  0  0  0
   -0.9877    3.0589    1.1405 C   0  0  0  0  0  0  0  0  0  0  0  0
   -0.8605    2.2264    2.2082 C   0  0  0  0  0  0  0  0  0  0  0  0
   -0.2516    0.8996    1.9963 C   0  0  0  0  0  0  0  0  0  0  0  0
    0.1661    0.5282    0.7780 C   0  0  0  0  0  0  0  0  0  0  0  0
    1.0803   -0.5852   -2.1494 C   0  0  0  0  0  0  0  0  0  0  0  0
    1.8787   -0.9086   -3.3821 C   0  0  0  0  0  0  0  0  0  0  0  0
    2.3453   -2.1333   -3.6408 C   0  0  0  0  0  0  0  0  0  0  0  0
    2.0957   -3.2459   -2.7169 C   0  0  0  0  0  0  0  0  0  0  0  0
    1.3789   -3.0109   -1.5983 C   0  0  0  0  0  0  0  0  0  0  0  0
    0.8507   -1.6381   -1.2961 C   0  0  0  0  0  0  0  0  0  0  0  0
   -2.0513    3.7959    3.7606 C   0  0  0  0  0  0  0  0  0  0  0  0
   -0.9928    1.7746    4.6450 C   0  0  0  0  0  0  0  0  0  0  0  0
    3.6534   -4.7281   -3.9687 C   0  0  0  0  0  0  0  0  0  0  0  0
    2.1026   -5.7225   -2.3179 C   0  0  0  0  0  0  0  0  0  0  0  0
  1  2  1  0  0  0  0
  1 10  1  0  0  0  0
  1 16  1  0  0  0  0
  2  4  2  0  0  0  0
  2  9  1  0  0  0  0
  4  6  1  0  0  0  0
  6  7  2  0  0  0  0
  7  8  1  0  0  0  0
  8  9  2  0  0  0  0
 10 11  2  0  0  0  0
 10 15  1  0  0  0  0
 11 12  1  0  0  0  0
 12 13  2  0  0  0  0
 13  3  1  0  0  0  0
 13 14  1  0  0  0  0
 14 15  2  0  0  0  0
 16 17  2  0  0  0  0
 16 21  1  0  0  0  0
 17 18  1  0  0  0  0
 18 19  2  0  0  0  0
 19  5  1  0  0  0  0
 19 20  1  0  0  0  0
 20 21  2  0  0  0  0
 22  3  1  0  0  0  0
 23  3  1  0  0  0  0
 24  5  1  0  0  0  0
 25  5  1  0  0  0  0
M  END
>  <CHROM.1>
-122.22631937,6.63605069,16.25072717,8.20919829,16.71202925,0.60223034,0.42887385
-1.27692248,-3.13776164,-1.18861054,2.29646754

>  <Name>
1q8n_lig

>  <RI>
0

>  <Rbt.Current_Directory>
/home/itssahil/PROJECTS/Mol_Feturizer/New_Systems/rnas/1q8n

>  <Rbt.Executable>
rbdock ($Id: //depot/dev/client3/rdock/2013.1/src/exe/rbdock.cxx#4 $)

>  <Rbt.Library>
libRbt.so (2013.1, Build901 2013/11/27)

>  <Rbt.Parameter_File>
/export/apps/rDock/src/rDock_2013.1_src/data/scripts/dock_solv.prm

>  <Rbt.Receptor>
prm/pocket_docking_2.prm

>  <SCORE>
-51.1126

>  <SCORE.INTER>
-51.6884

>  <SCORE.INTER.CONST>
1

>  <SCORE.INTER.POLAR>
0

>  <SCORE.INTER.ROT>
5

>  <SCORE.INTER.SOLV>
10.6253

>  <SCORE.INTER.VDW>
-44.934

>  <SCORE.INTER.norm>
-2.06754

>  <SCORE.INTRA>
0.41515

>  <SCORE.INTRA.DIHEDRAL>
1.31456

>  <SCORE.INTRA.DIHEDRAL.0>
2.1627

>  <SCORE.INTRA.POLAR>
0

>  <SCORE.INTRA.POLAR.0>
0

>  <SCORE.INTRA.REPUL>
0

>  <SCORE.INTRA.REPUL.0>
0

>  <SCORE.INTRA.SOLV>
0.0203721

>  <SCORE.INTRA.SOLV.lig_0>
-5.95779

>  <SCORE.INTRA.VDW>
-0.252318

>  <SCORE.INTRA.VDW.0>
3.81702

>  <SCORE.INTRA.norm>
0.016606

>  <SCORE.RESTR>
0.160643

>  <SCORE.RESTR.CAVITY>
0.160643

>  <SCORE.RESTR.norm>
0.00642571

>  <SCORE.SYSTEM>
0

>  <SCORE.SYSTEM.CONST>
0

>  <SCORE.SYSTEM.DIHEDRAL>
0

>  <SCORE.SYSTEM.SOLV>
0

>  <SCORE.SYSTEM.norm>
0

>  <SCORE.heavy>
25

>  <SCORE.norm>
-2.0445

>  <RMSD>
0.470

$$$$
1q8n_lig
 OpenBabel11021811403D
libRbt.so/2013.1/901 2013/11/27
 25 27  0  0  0  0  0  0  0  0999 V2000
    0.5023    1.1119   -1.8778 C   0  0  0  0  0  0  0  0  0  0  0  0
    0.4825    2.1730   -3.1184 C   0  0  0  0  0  0  0  0  0  0  0  0
    2.5400   -4.3899   -2.8771 N   0  0  0  0  0  0  0  0  0  0  0  0
   -0.2015    1.9651   -4.2690 C   0  0  0  0  0  0  0  0  0  0  0  0
   -1.2680    2.4505    3.6888 N   0  0  0  0  0  0  0  0  0  0  0  0
   -0.1884    2.9517   -5.3737 C   0  0  0  0  0  0  0  0  0  0  0  0
    0.5204    4.0965   -5.2431 C   0  0  0  0  0  0  0  0  0  0  0  0
    1.2514    4.3412   -4.0218 C   0  0  0  0  0  0  0  0  0  0  0  0
    1.2333    3.4431   -3.0337 C   0  0  0  0  0  0  0  0  0  0  0  0
    1.0615   -0.3946   -2.1569 C   0  0  0  0  0  0  0  0  0  0  0  0
    1.7361   -0.6920   -3.2868 C   0  0  0  0  0  0  0  0  0  0  0  0
    2.2539   -2.0617   -3.5582 C   0  0  0  0  0  0  0  0  0  0  0  0
    2.0565   -3.0593   -2.6553 C   0  0  0  0  0  0  0  0  0  0  0  0
    1.3224   -2.7486   -1.4141 C   0  0  0  0  0  0  0  0  0  0  0  0
    0.8616   -1.5107   -1.1865 C   0  0  0  0  0  0  0  0  0  0  0  0
   -0.0284    1.5301   -0.3637 C   0  0  0  0  0  0  0  0  0  0  0  0
    0.3365    0.6754    0.8186 C   0  0  0  0  0  0  0  0  0  0  0  0
   -0.0503    0.9616    2.0647 C   0  0  0  0  0  0  0  0  0  0  0  0
   -0.8678    2.1473    2.3467 C   0  0  0  0  0  0  0  0  0  0  0  0
   -1.2283    2.9451    1.3200 C   0  0  0  0  0  0  0  0  0  0  0  0
   -0.7980    2.6342   -0.0847 C   0  0  0  0  0  0  0  0  0  0  0  0
    3.4742   -4.6999   -3.9163 C   0  0  0  0  0  0  0  0  0  0  0  0
    2.0925   -5.4651   -2.0471 C   0  0  0  0  0  0  0  0  0  0  0  0
   -2.0093    3.6458    3.9720 C   0  0  0  0  0  0  0  0  0  0  0  0
   -0.9450    1.5665    4.7859 C   0  0  0  0  0  0  0  0  0  0  0  0
  1  2  1  0  0  0  0
  1 10  1  0  0  0  0
  1 16  1  0  0  0  0
  2  4  2  0  0  0  0
  2  9  1  0  0  0  0
  4  6  1  0  0  0  0
  6  7  2  0  0  0  0
  7  8  1  0  0  0  0
  8  9  2  0  0  0  0
 10 11  2  0  0  0  0
 10 15  1  0  0  0  0
 11 12  1  0  0  0  0
 12 13  2  0  0  0  0
 13  3  1  0  0  0  0
 13 14  1  0  0  0  0
 14 15  2  0  0  0  0
 16 17  2  0  0  0  0
 16 21  1  0  0  0  0
 17 18  1  0  0  0  0
 18 19  2  0  0  0  0
 19  5  1  0  0  0  0
 19 20  1  0  0  0  0
 20 21  2  0  0  0  0
 22  3  1  0  0  0  0
 23  3  1  0  0  0  0
 24  5  1  0  0  0  0
 25  5  1  0  0  0  0
M  END
>  <CHROM.1>
59.20908543,13.16653609,-163.69672902,12.50298597,176.82416639,0.56852468
0.49313519,-1.20283143,0.08650649,1.18774044,-0.87683537

>  <Name>
1q8n_lig

>  <RI>
0

>  <Rbt.Current_Directory>
/home/itssahil/PROJECTS/Mol_Feturizer/New_Systems/rnas/1q8n

>  <Rbt.Executable>
rbdock ($Id: //depot/dev/client3/rdock/2013.1/src/exe/rbdock.cxx#4 $)

>  <Rbt.Library>
libRbt.so (2013.1, Build901 2013/11/27)

>  <Rbt.Parameter_File>
/export/apps/rDock/src/rDock_2013.1_src/data/scripts/dock_solv.prm

>  <Rbt.Receptor>
prm/blind_docking_60.prm

>  <SCORE>
-53.9638

>  <SCORE.INTER>
-54.4376

>  <SCORE.INTER.CONST>
1

>  <SCORE.INTER.POLAR>
0

>  <SCORE.INTER.ROT>
5

>  <SCORE.INTER.SOLV>
10.5386

>  <SCORE.INTER.VDW>
-46.7379

>  <SCORE.INTER.norm>
-2.1775

>  <SCORE.INTRA>
0.473783

>  <SCORE.INTRA.DIHEDRAL>
0.63778

>  <SCORE.INTRA.DIHEDRAL.0>
2.1627

>  <SCORE.INTRA.POLAR>
0

>  <SCORE.INTRA.POLAR.0>
0

>  <SCORE.INTRA.REPUL>
0

>  <SCORE.INTRA.REPUL.0>
0

>  <SCORE.INTRA.SOLV>
0.0218812

>  <SCORE.INTRA.SOLV.lig_0>
-5.95779

>  <SCORE.INTRA.VDW>
0.143952

>  <SCORE.INTRA.VDW.0>
3.81702

>  <SCORE.INTRA.norm>
0.0189513

>  <SCORE.RESTR>
0

>  <SCORE.RESTR.CAVITY>
0

>  <SCORE.RESTR.norm>
0

>  <SCORE.SYSTEM>
0

>  <SCORE.SYSTEM.CONST>
0

>  <SCORE.SYSTEM.DIHEDRAL>
0

>  <SCORE.SYSTEM.SOLV>
0

>  <SCORE.SYSTEM.norm>
0

>  <SCORE.heavy>
25

>  <SCORE.norm>
-2.15855

>  <RMSD>
0.471

$$$$
1q8n_lig
 OpenBabel11021811403D
libRbt.so/2013.1/901 2013/11/27
 25 27  0  0  0  0  0  0  0  0999 V2000
    0.6236    0.9762   -1.8705 C   0  0  0  0  0  0  0  0  0  0  0  0
    0.5846    2.0576   -3.0930 C   0  0  0  0  0  0  0  0  0  0  0  0
    2.6147   -4.5095   -3.0384 N   0  0  0  0  0  0  0  0  0  0  0  0
    1.2647    3.2289   -3.0769 C   0  0  0  0  0  0  0  0  0  0  0  0
   -1.3058    2.5913    3.5684 N   0  0  0  0  0  0  0  0  0  0  0  0
    1.1975    4.1858   -4.2055 C   0  0  0  0  0  0  0  0  0  0  0  0
    0.4416    3.8943   -5.2888 C   0  0  0  0  0  0  0  0  0  0  0  0
   -0.2864    2.6476   -5.3295 C   0  0  0  0  0  0  0  0  0  0  0  0
   -0.2192    1.7940   -4.3048 C   0  0  0  0  0  0  0  0  0  0  0  0
    1.1680   -0.5286   -2.1855 C   0  0  0  0  0  0  0  0  0  0  0  0
    0.8639   -1.5657   -1.3778 C   0  0  0  0  0  0  0  0  0  0  0  0
    1.3521   -2.9461   -1.6499 C   0  0  0  0  0  0  0  0  0  0  0  0
    2.1264   -3.1957   -2.7396 C   0  0  0  0  0  0  0  0  0  0  0  0
    2.4653   -2.0721   -3.6332 C   0  0  0  0  0  0  0  0  0  0  0  0
    2.0190   -0.8354   -3.3725 C   0  0  0  0  0  0  0  0  0  0  0  0
    0.1268    1.3725   -0.3392 C   0  0  0  0  0  0  0  0  0  0  0  0
   -0.6343    2.6486   -0.1071 C   0  0  0  0  0  0  0  0  0  0  0  0
   -1.0709    3.0211    1.0991 C   0  0  0  0  0  0  0  0  0  0  0  0
   -0.8234    2.1871    2.2811 C   0  0  0  0  0  0  0  0  0  0  0  0
   -0.1394    1.0341    2.1289 C   0  0  0  0  0  0  0  0  0  0  0  0
    0.3550    0.6044    0.7777 C   0  0  0  0  0  0  0  0  0  0  0  0
    3.6313   -4.7418   -4.0188 C   0  0  0  0  0  0  0  0  0  0  0  0
    2.0880   -5.6463   -2.3490 C   0  0  0  0  0  0  0  0  0  0  0  0
   -1.0455    1.7851    4.7263 C   0  0  0  0  0  0  0  0  0  0  0  0
   -2.0567    3.8147    3.7381 C   0  0  0  0  0  0  0  0  0  0  0  0
  1  2  1  0  0  0  0
  1 10  1  0  0  0  0
  1 16  1  0  0  0  0
  2  4  2  0  0  0  0
  2  9  1  0  0  0  0
  4  6  1  0  0  0  0
  6  7  2  0  0  0  0
  7  8  1  0  0  0  0
  8  9  2  0  0  0  0
 10 11  2  0  0  0  0
 10 15  1  0  0  0  0
 11 12  1  0  0  0  0
 12 13  2  0  0  0  0
 13  3  1  0  0  0  0
 13 14  1  0  0  0  0
 14 15  2  0  0  0  0
 16 17  2  0  0  0  0
 16 21  1  0  0  0  0
 17 18  1  0  0  0  0
 18 19  2  0  0  0  0
 19  5  1  0  0  0  0
 19 20  1  0  0  0  0
 20 21  2  0  0  0  0
 22  3  1  0  0  0  0
 23  3  1  0  0  0  0
 24  5  1  0  0  0  0
 25  5  1  0  0  0  0
M  END
>  <CHROM.1>
-120.33476609,-159.70993434,12.62308880,-167.53453449,-179.04765248,0.61453485
0.42421808,-1.29313186,0.08334820,1.18555164,-0.89562716

>  <Name>
1q8n_lig

>  <RI>
0

>  <Rbt.Current_Directory>
/home/itssahil/PROJECTS/Mol_Feturizer/New_Systems/rnas/1q8n

>  <Rbt.Executable>
rbdock ($Id: //depot/dev/client3/rdock/2013.1/src/exe/rbdock.cxx#4 $)

>  <Rbt.Library>
libRbt.so (2013.1, Build901 2013/11/27)

>  <Rbt.Parameter_File>
/export/apps/rDock/src/rDock_2013.1_src/data/scripts/dock_solv.prm

>  <Rbt.Receptor>
prm/pocket_docking_2.prm

>  <SCORE>
-52.2742

>  <SCORE.INTER>
-52.7262

>  <SCORE.INTER.CONST>
1

>  <SCORE.INTER.POLAR>
0

>  <SCORE.INTER.ROT>
5

>  <SCORE.INTER.SOLV>
10.4402

>  <SCORE.INTER.VDW>
-45.5642

>  <SCORE.INTER.norm>
-2.10905

>  <SCORE.INTRA>
0.313846

>  <SCORE.INTRA.DIHEDRAL>
0.597577

>  <SCORE.INTRA.DIHEDRAL.0>
2.1627

>  <SCORE.INTRA.POLAR>
0

>  <SCORE.INTRA.POLAR.0>
0

>  <SCORE.INTRA.REPUL>
0

>  <SCORE.INTRA.REPUL.0>
0

>  <SCORE.INTRA.SOLV>
0.0105483

>  <SCORE.INTRA.SOLV.lig_0>
-5.95779

>  <SCORE.INTRA.VDW>
0.00978394

>  <SCORE.INTRA.VDW.0>
3.81702

>  <SCORE.INTRA.norm>
0.0125539

>  <SCORE.RESTR>
0.138062

>  <SCORE.RESTR.CAVITY>
0.138062

>  <SCORE.RESTR.norm>
0.00552249

>  <SCORE.SYSTEM>
0

>  <SCORE.SYSTEM.CONST>
0

>  <SCORE.SYSTEM.DIHEDRAL>
0

>  <SCORE.SYSTEM.SOLV>
0

>  <SCORE.SYSTEM.norm>
0

>  <SCORE.heavy>
25

>  <SCORE.norm>
-2.09097

>  <RMSD>
0.472

$$$$
1q8n_lig
 OpenBabel11021811403D
libRbt.so/2013.1/901 2013/11/27
 25 27  0  0  0  0  0  0  0  0999 V2000
    0.6039    0.9816   -1.8536 C   0  0  0  0  0  0  0  0  0  0  0  0
    0.5675    2.0581   -3.0805 C   0  0  0  0  0  0  0  0  0  0  0  0
    2.5963   -4.5091   -2.9959 N   0  0  0  0  0  0  0  0  0  0  0  0
    1.2166    3.2467   -3.0516 C   0  0  0  0  0  0  0  0  0  0  0  0
   -1.3298    2.6238    3.5756 N   0  0  0  0  0  0  0  0  0  0  0  0
    1.1530    4.1983   -4.1848 C   0  0  0  0  0  0  0  0  0  0  0  0
    0.4321    3.8843   -5.2856 C   0  0  0  0  0  0  0  0  0  0  0  0
   -0.2623    2.6190   -5.3400 C   0  0  0  0  0  0  0  0  0  0  0  0
   -0.1987    1.7703   -4.3110 C   0  0  0  0  0  0  0  0  0  0  0  0
    1.1488   -0.5245   -2.1616 C   0  0  0  0  0  0  0  0  0  0  0  0
    0.8882   -1.5479   -1.3218 C   0  0  0  0  0  0  0  0  0  0  0  0
    1.3776   -2.9292   -1.5869 C   0  0  0  0  0  0  0  0  0  0  0  0
    2.1084   -3.1939   -2.7028 C   0  0  0  0  0  0  0  0  0  0  0  0
    2.3996   -2.0854   -3.6315 C   0  0  0  0  0  0  0  0  0  0  0  0
    1.9529   -0.8476   -3.3766 C   0  0  0  0  0  0  0  0  0  0  0  0
    0.1038    1.3839   -0.3250 C   0  0  0  0  0  0  0  0  0  0  0  0
   -0.6151    2.6840   -0.0917 C   0  0  0  0  0  0  0  0  0  0  0  0
   -1.0522    3.0628    1.1124 C   0  0  0  0  0  0  0  0  0  0  0  0
   -0.8471    2.2124    2.2907 C   0  0  0  0  0  0  0  0  0  0  0  0
   -0.2018    1.0374    2.1374 C   0  0  0  0  0  0  0  0  0  0  0  0
    0.2926    0.6004    0.7885 C   0  0  0  0  0  0  0  0  0  0  0  0
    2.0952   -5.6748   -2.3337 C   0  0  0  0  0  0  0  0  0  0  0  0
    3.6177   -4.6943   -3.9796 C   0  0  0  0  0  0  0  0  0  0  0  0
   -2.0954    3.8297    3.7106 C   0  0  0  0  0  0  0  0  0  0  0  0
   -1.0672    1.8405    4.7618 C   0  0  0  0  0  0  0  0  0  0  0  0
  1  2  1  0  0  0  0
  1 10  1  0  0  0  0
  1 16  1  0  0  0  0
  2  4  2  0  0  0  0
  2  9  1  0  0  0  0
  4  6  1  0  0  0  0
  6  7  2  0  0  0  0
  7  8  1  0  0  0  0
  8  9  2  0  0  0  0
 10 11  2  0  0  0  0
 10 15  1  0  0  0  0
 11 12  1  0  0  0  0
 12 13  2  0  0  0  0
 13  3  1  0  0  0  0
 13 14  1  0  0  0  0
 14 15  2  0  0  0  0
 16 17  2  0  0  0  0
 16 21  1  0  0  0  0
 17 18  1  0  0  0  0
 18 19  2  0  0  0  0
 19  5  1  0  0  0  0
 19 20  1  0  0  0  0
 20 21  2  0  0  0  0
 22  3  1  0  0  0  0
 23  3  1  0  0  0  0
 24  5  1  0  0  0  0
 25  5  1  0  0  0  0
M  END
>  <CHROM.1>
-122.31128135,-162.41653164,10.46985273,15.36953203,4.09760114,0.59631329
0.43358025,-1.27622639,0.08223052,1.18547350,-0.89768012

>  <Name>
1q8n_lig

>  <RI>
0

>  <Rbt.Current_Directory>
/home/itssahil/PROJECTS/Mol_Feturizer/New_Systems/rnas/1q8n

>  <Rbt.Executable>
rbdock ($Id: //depot/dev/client3/rdock/2013.1/src/exe/rbdock.cxx#4 $)

>  <Rbt.Library>
libRbt.so (2013.1, Build901 2013/11/27)

>  <Rbt.Parameter_File>
/export/apps/rDock/src/rDock_2013.1_src/data/scripts/dock_solv.prm

>  <Rbt.Receptor>
prm/pocket_docking_2.prm

>  <SCORE>
-52.339

>  <SCORE.INTER>
-52.8298

>  <SCORE.INTER.CONST>
1

>  <SCORE.INTER.POLAR>
0

>  <SCORE.INTER.ROT>
5

>  <SCORE.INTER.SOLV>
10.4745

>  <SCORE.INTER.VDW>
-45.6447

>  <SCORE.INTER.norm>
-2.11319

>  <SCORE.INTRA>
0.364479

>  <SCORE.INTRA.DIHEDRAL>
0.962132

>  <SCORE.INTRA.DIHEDRAL.0>
2.1627

>  <SCORE.INTRA.POLAR>
0

>  <SCORE.INTRA.POLAR.0>
0

>  <SCORE.INTRA.REPUL>
0

>  <SCORE.INTRA.REPUL.0>
0

>  <SCORE.INTRA.SOLV>
0.0167306

>  <SCORE.INTRA.SOLV.lig_0>
-5.95779

>  <SCORE.INTRA.VDW>
-0.124952

>  <SCORE.INTRA.VDW.0>
3.81702

>  <SCORE.INTRA.norm>
0.0145792

>  <SCORE.RESTR>
0.126307

>  <SCORE.RESTR.CAVITY>
0.126307

>  <SCORE.RESTR.norm>
0.00505229

>  <SCORE.SYSTEM>
0

>  <SCORE.SYSTEM.CONST>
0

>  <SCORE.SYSTEM.DIHEDRAL>
0

>  <SCORE.SYSTEM.SOLV>
0

>  <SCORE.SYSTEM.norm>
0

>  <SCORE.heavy>
25

>  <SCORE.norm>
-2.09356

>  <RMSD>
0.472

$$$$
1q8n_lig
 OpenBabel11021811403D
libRbt.so/2013.1/901 2013/11/27
 25 27  0  0  0  0  0  0  0  0999 V2000
    0.6404    0.9948   -1.8562 C   0  0  0  0  0  0  0  0  0  0  0  0
    0.6165    2.1368   -3.0227 C   0  0  0  0  0  0  0  0  0  0  0  0
   -1.2442    2.4619    3.5952 N   0  0  0  0  0  0  0  0  0  0  0  0
    1.2817    3.3132   -2.9308 C   0  0  0  0  0  0  0  0  0  0  0  0
    2.4415   -4.6522   -2.7398 N   0  0  0  0  0  0  0  0  0  0  0  0
    1.2290    4.3258   -4.0105 C   0  0  0  0  0  0  0  0  0  0  0  0
    0.5018    4.0819   -5.1248 C   0  0  0  0  0  0  0  0  0  0  0  0
   -0.2098    2.8310   -5.2462 C   0  0  0  0  0  0  0  0  0  0  0  0
   -0.1559    1.9268   -4.2650 C   0  0  0  0  0  0  0  0  0  0  0  0
    0.1229    1.4019   -0.3640 C   0  0  0  0  0  0  0  0  0  0  0  0
   -0.5981    2.5230   -0.1555 C   0  0  0  0  0  0  0  0  0  0  0  0
   -1.0789    2.9103    1.1998 C   0  0  0  0  0  0  0  0  0  0  0  0
   -0.7987    2.1264    2.2751 C   0  0  0  0  0  0  0  0  0  0  0  0
   -0.0131    0.8961    2.0623 C   0  0  0  0  0  0  0  0  0  0  0  0
    0.4133    0.5634    0.8359 C   0  0  0  0  0  0  0  0  0  0  0  0
    1.1738   -0.5463   -2.1549 C   0  0  0  0  0  0  0  0  0  0  0  0
    0.9318   -1.6306   -1.1414 C   0  0  0  0  0  0  0  0  0  0  0  0
    1.3270   -2.8934   -1.3250 C   0  0  0  0  0  0  0  0  0  0  0  0
    2.0318   -3.2924   -2.5488 C   0  0  0  0  0  0  0  0  0  0  0  0
    2.2799   -2.3563   -3.4882 C   0  0  0  0  0  0  0  0  0  0  0  0
    1.8391   -0.9340   -3.2936 C   0  0  0  0  0  0  0  0  0  0  0  0
   -0.9632    1.6353    4.7293 C   0  0  0  0  0  0  0  0  0  0  0  0
   -1.9963    3.6578    3.8179 C   0  0  0  0  0  0  0  0  0  0  0  0
    1.9303   -5.6897   -1.8908 C   0  0  0  0  0  0  0  0  0  0  0  0
    3.3686   -5.0163   -3.7873 C   0  0  0  0  0  0  0  0  0  0  0  0
  1  2  1  0  0  0  0
  1 10  1  0  0  0  0
  1 16  1  0  0  0  0
  2  4  2  0  0  0  0
  2  9  1  0  0  0  0
  4  6  1  0  0  0  0
  6  7  2  0  0  0  0
  7  8  1  0  0  0  0
  8  9  2  0  0  0  0
 10 11  2  0  0  0  0
 10 15  1  0  0  0  0
 11 12  1  0  0  0  0
 12 13  2  0  0  0  0
 13  3  1  0  0  0  0
 13 14  1  0  0  0  0
 14 15  2  0  0  0  0
 16 17  2  0  0  0  0
 16 21  1  0  0  0  0
 17 18  1  0  0  0  0
 18 19  2  0  0  0  0
 19  5  1  0  0  0  0
 19 20  1  0  0  0  0
 20 21  2  0  0  0  0
 22  3  1  0  0  0  0
 23  3  1  0  0  0  0
 24  5  1  0  0  0  0
 25  5  1  0  0  0  0
M  END
>  <CHROM.1>
58.39172755,15.72369242,-168.08743839,179.42743880,13.32623202,0.60198457
0.37935386,-1.17674897,-3.12241143,-1.20157392,2.29387823

>  <Name>
1q8n_lig

>  <RI>
0

>  <Rbt.Current_Directory>
/home/itssahil/PROJECTS/Mol_Feturizer/New_Systems/rnas/1q8n

>  <Rbt.Executable>
rbdock ($Id: //depot/dev/client3/rdock/2013.1/src/exe/rbdock.cxx#4 $)

>  <Rbt.Library>
libRbt.so (2013.1, Build901 2013/11/27)

>  <Rbt.Parameter_File>
/export/apps/rDock/src/rDock_2013.1_src/data/scripts/dock_solv.prm

>  <Rbt.Receptor>
prm/blind_docking_80.prm

>  <SCORE>
-52.9821

>  <SCORE.INTER>
-53.4293

>  <SCORE.INTER.CONST>
1

>  <SCORE.INTER.POLAR>
0

>  <SCORE.INTER.ROT>
5

>  <SCORE.INTER.SOLV>
10.4655

>  <SCORE.INTER.VDW>
-46.0413

>  <SCORE.INTER.norm>
-2.13717

>  <SCORE.INTRA>
0.447186

>  <SCORE.INTRA.DIHEDRAL>
0.678016

>  <SCORE.INTRA.DIHEDRAL.0>
2.1627

>  <SCORE.INTRA.POLAR>
0

>  <SCORE.INTRA.POLAR.0>
0

>  <SCORE.INTRA.REPUL>
0

>  <SCORE.INTRA.REPUL.0>
0

>  <SCORE.INTRA.SOLV>
0.0238983

>  <SCORE.INTRA.SOLV.lig_0>
-5.95779

>  <SCORE.INTRA.VDW>
0.0962289

>  <SCORE.INTRA.VDW.0>
3.81702

>  <SCORE.INTRA.norm>
0.0178874

>  <SCORE.RESTR>
0

>  <SCORE.RESTR.CAVITY>
0

>  <SCORE.RESTR.norm>
0

>  <SCORE.SYSTEM>
0

>  <SCORE.SYSTEM.CONST>
0

>  <SCORE.SYSTEM.DIHEDRAL>
0

>  <SCORE.SYSTEM.SOLV>
0

>  <SCORE.SYSTEM.norm>
0

>  <SCORE.heavy>
25

>  <SCORE.norm>
-2.11928

>  <RMSD>
0.473

$$$$
1q8n_lig
 OpenBabel11021811403D
libRbt.so/2013.1/901 2013/11/27
 25 27  0  0  0  0  0  0  0  0999 V2000
    0.5584    1.1189   -1.9221 C   0  0  0  0  0  0  0  0  0  0  0  0
    0.5437    2.1716   -3.1700 C   0  0  0  0  0  0  0  0  0  0  0  0
    2.5991   -4.3829   -2.9156 N   0  0  0  0  0  0  0  0  0  0  0  0
    1.2222    3.3439   -3.1670 C   0  0  0  0  0  0  0  0  0  0  0  0
   -1.2426    2.4835    3.6283 N   0  0  0  0  0  0  0  0  0  0  0  0
    1.1775    4.2743   -4.3187 C   0  0  0  0  0  0  0  0  0  0  0  0
    0.4443    3.9567   -5.4103 C   0  0  0  0  0  0  0  0  0  0  0  0
   -0.2815    2.7083   -5.4370 C   0  0  0  0  0  0  0  0  0  0  0  0
   -0.2347    1.8788   -4.3916 C   0  0  0  0  0  0  0  0  0  0  0  0
    1.1162   -0.3902   -2.1893 C   0  0  0  0  0  0  0  0  0  0  0  0
    0.7811   -1.4138   -1.3767 C   0  0  0  0  0  0  0  0  0  0  0  0
    1.2809   -2.7979   -1.6054 C   0  0  0  0  0  0  0  0  0  0  0  0
    2.0982   -3.0650   -2.6590 C   0  0  0  0  0  0  0  0  0  0  0  0
    2.4714   -1.9563   -3.5576 C   0  0  0  0  0  0  0  0  0  0  0  0
    2.0140   -0.7160   -3.3361 C   0  0  0  0  0  0  0  0  0  0  0  0
    0.0242    1.5481   -0.4124 C   0  0  0  0  0  0  0  0  0  0  0  0
    0.2830    0.6401    0.7581 C   0  0  0  0  0  0  0  0  0  0  0  0
   -0.1119    0.9314    2.0005 C   0  0  0  0  0  0  0  0  0  0  0  0
   -0.8332    2.1763    2.2899 C   0  0  0  0  0  0  0  0  0  0  0  0
   -1.0967    3.0238    1.2737 C   0  0  0  0  0  0  0  0  0  0  0  0
   -0.6563    2.7077   -0.1267 C   0  0  0  0  0  0  0  0  0  0  0  0
    3.6041   -4.6394   -3.9018 C   0  0  0  0  0  0  0  0  0  0  0  0
    2.0974   -5.4993   -2.1759 C   0  0  0  0  0  0  0  0  0  0  0  0
   -0.9215    1.5940    4.7072 C   0  0  0  0  0  0  0  0  0  0  0  0
   -1.9790    3.6904    3.9293 C   0  0  0  0  0  0  0  0  0  0  0  0
  1  2  1  0  0  0  0
  1 10  1  0  0  0  0
  1 16  1  0  0  0  0
  2  4  2  0  0  0  0
  2  9  1  0  0  0  0
  4  6  1  0  0  0  0
  6  7  2  0  0  0  0
  7  8  1  0  0  0  0
  8  9  2  0  0  0  0
 10 11  2  0  0  0  0
 10 15  1  0  0  0  0
 11 12  1  0  0  0  0
 12 13  2  0  0  0  0
 13  3  1  0  0  0  0
 13 14  1  0  0  0  0
 14 15  2  0  0  0  0
 16 17  2  0  0  0  0
 16 21  1  0  0  0  0
 17 18  1  0  0  0  0
 18 19  2  0  0  0  0
 19  5  1  0  0  0  0
 19 20  1  0  0  0  0
 20 21  2  0  0  0  0
 22  3  1  0  0  0  0
 23  3  1  0  0  0  0
 24  5  1  0  0  0  0
 25  5  1  0  0  0  0
M  END
>  <CHROM.1>
-120.09159423,-158.69390758,-168.96181955,-170.94956183,1.62736586,0.60142651
0.48464456,-1.28270642,0.13321950,1.18268912,-0.91369947

>  <Name>
1q8n_lig

>  <RI>
0

>  <Rbt.Current_Directory>
/home/itssahil/PROJECTS/Mol_Feturizer/New_Systems/rnas/1q8n

>  <Rbt.Executable>
rbdock ($Id: //depot/dev/client3/rdock/2013.1/src/exe/rbdock.cxx#4 $)

>  <Rbt.Library>
libRbt.so (2013.1, Build901 2013/11/27)

>  <Rbt.Parameter_File>
/export/apps/rDock/src/rDock_2013.1_src/data/scripts/dock_solv.prm

>  <Rbt.Receptor>
prm/pocket_docking_2.prm

>  <SCORE>
-53.2381

>  <SCORE.INTER>
-53.9375

>  <SCORE.INTER.CONST>
1

>  <SCORE.INTER.POLAR>
0

>  <SCORE.INTER.ROT>
5

>  <SCORE.INTER.SOLV>
10.3851

>  <SCORE.INTER.VDW>
-46.3534

>  <SCORE.INTER.norm>
-2.1575

>  <SCORE.INTRA>
0.363611

>  <SCORE.INTRA.DIHEDRAL>
0.326333

>  <SCORE.INTRA.DIHEDRAL.0>
2.1627

>  <SCORE.INTRA.POLAR>
0

>  <SCORE.INTRA.POLAR.0>
0

>  <SCORE.INTRA.REPUL>
0

>  <SCORE.INTRA.REPUL.0>
0

>  <SCORE.INTRA.SOLV>
0.0182183

>  <SCORE.INTRA.SOLV.lig_0>
-5.95779

>  <SCORE.INTRA.VDW>
0.191335

>  <SCORE.INTRA.VDW.0>
3.81702

>  <SCORE.INTRA.norm>
0.0145444

>  <SCORE.RESTR>
0.335851

>  <SCORE.RESTR.CAVITY>
0.335851

>  <SCORE.RESTR.norm>
0.013434

>  <SCORE.SYSTEM>
0

>  <SCORE.SYSTEM.CONST>
0

>  <SCORE.SYSTEM.DIHEDRAL>
0

>  <SCORE.SYSTEM.SOLV>
0

>  <SCORE.SYSTEM.norm>
0

>  <SCORE.heavy>
25

>  <SCORE.norm>
-2.12952

>  <RMSD>
0.474

$$$$
1q8n_lig
 OpenBabel11021811403D
libRbt.so/2013.1/901 2013/11/27
 25 27  0  0  0  0  0  0  0  0999 V2000
    0.5607    0.9824   -1.9023 C   0  0  0  0  0  0  0  0  0  0  0  0
    0.5244    2.0887   -3.1024 C   0  0  0  0  0  0  0  0  0  0  0  0
   -1.2831    2.6091    3.5176 N   0  0  0  0  0  0  0  0  0  0  0  0
   -0.1746    1.9230   -4.2509 C   0  0  0  0  0  0  0  0  0  0  0  0
    2.6260   -4.5314   -3.0183 N   0  0  0  0  0  0  0  0  0  0  0  0
   -0.1763    2.9499   -5.3183 C   0  0  0  0  0  0  0  0  0  0  0  0
    0.5338    4.0896   -5.1546 C   0  0  0  0  0  0  0  0  0  0  0  0
    1.2807    4.2895   -3.9348 C   0  0  0  0  0  0  0  0  0  0  0  0
    1.2758    3.3553   -2.9806 C   0  0  0  0  0  0  0  0  0  0  0  0
    0.0553    1.4333   -0.4186 C   0  0  0  0  0  0  0  0  0  0  0  0
   -0.4675    2.6578   -0.2001 C   0  0  0  0  0  0  0  0  0  0  0  0
   -0.9340    3.0865    1.1477 C   0  0  0  0  0  0  0  0  0  0  0  0
   -0.8439    2.2365    2.2054 C   0  0  0  0  0  0  0  0  0  0  0  0
   -0.2764    0.8935    1.9813 C   0  0  0  0  0  0  0  0  0  0  0  0
    0.1404    0.5245    0.7620 C   0  0  0  0  0  0  0  0  0  0  0  0
    1.0946   -0.5661   -2.1591 C   0  0  0  0  0  0  0  0  0  0  0  0
    1.8860   -0.8882   -3.3967 C   0  0  0  0  0  0  0  0  0  0  0  0
    2.3531   -2.1121   -3.6582 C   0  0  0  0  0  0  0  0  0  0  0  0
    2.1110   -3.2251   -2.7328 C   0  0  0  0  0  0  0  0  0  0  0  0
    1.4006   -2.9913   -1.6098 C   0  0  0  0  0  0  0  0  0  0  0  0
    0.8719   -1.6193   -1.3045 C   0  0  0  0  0  0  0  0  0  0  0  0
   -2.0417    3.7983    3.7602 C   0  0  0  0  0  0  0  0  0  0  0  0
   -0.9687    1.7837    4.6423 C   0  0  0  0  0  0  0  0  0  0  0  0
    3.6833   -4.7015   -3.9731 C   0  0  0  0  0  0  0  0  0  0  0  0
    2.1046   -5.7050   -2.3546 C   0  0  0  0  0  0  0  0  0  0  0  0
  1  2  1  0  0  0  0
  1 10  1  0  0  0  0
  1 16  1  0  0  0  0
  2  4  2  0  0  0  0
  2  9  1  0  0  0  0
  4  6  1  0  0  0  0
  6  7  2  0  0  0  0
  7  8  1  0  0  0  0
  8  9  2  0  0  0  0
 10 11  2  0  0  0  0
 10 15  1  0  0  0  0
 11 12  1  0  0  0  0
 12 13  2  0  0  0  0
 13  3  1  0  0  0  0
 13 14  1  0  0  0  0
 14 15  2  0  0  0  0
 16 17  2  0  0  0  0
 16 21  1  0  0  0  0
 17 18  1  0  0  0  0
 18 19  2  0  0  0  0
 19  5  1  0  0  0  0
 19 20  1  0  0  0  0
 20 21  2  0  0  0  0
 22  3  1  0  0  0  0
 23  3  1  0  0  0  0
 24  5  1  0  0  0  0
 25  5  1  0  0  0  0
M  END
>  <CHROM.1>
-121.48099466,4.53618039,15.93846538,10.64201778,18.05208428,0.61614627,0.44580954
-1.28478780,-3.13776770,-1.18886517,2.29873559

>  <Name>
1q8n_lig

>  <RI>
0

>  <Rbt.Current_Directory>
/home/itssahil/PROJECTS/Mol_Feturizer/New_Systems/rnas/1q8n

>  <Rbt.Executable>
rbdock ($Id: //depot/dev/client3/rdock/2013.1/src/exe/rbdock.cxx#4 $)

>  <Rbt.Library>
libRbt.so (2013.1, Build901 2013/11/27)

>  <Rbt.Parameter_File>
/export/apps/rDock/src/rDock_2013.1_src/data/scripts/dock_solv.prm

>  <Rbt.Receptor>
prm/pocket_docking_2.prm

>  <SCORE>
-51.0038

>  <SCORE.INTER>
-51.6503

>  <SCORE.INTER.CONST>
1

>  <SCORE.INTER.POLAR>
0

>  <SCORE.INTER.ROT>
5

>  <SCORE.INTER.SOLV>
10.6473

>  <SCORE.INTER.VDW>
-44.916

>  <SCORE.INTER.norm>
-2.06601

>  <SCORE.INTRA>
0.483793

>  <SCORE.INTRA.DIHEDRAL>
1.66091

>  <SCORE.INTRA.DIHEDRAL.0>
2.1627

>  <SCORE.INTRA.POLAR>
0

>  <SCORE.INTRA.POLAR.0>
0

>  <SCORE.INTRA.REPUL>
0

>  <SCORE.INTRA.REPUL.0>
0

>  <SCORE.INTRA.SOLV>
0.0205385

>  <SCORE.INTRA.SOLV.lig_0>
-5.95779

>  <SCORE.INTRA.VDW>
-0.356933

>  <SCORE.INTRA.VDW.0>
3.81702

>  <SCORE.INTRA.norm>
0.0193517

>  <SCORE.RESTR>
0.162762

>  <SCORE.RESTR.CAVITY>
0.162762

>  <SCORE.RESTR.norm>
0.00651049

>  <SCORE.SYSTEM>
0

>  <SCORE.SYSTEM.CONST>
0

>  <SCORE.SYSTEM.DIHEDRAL>
0

>  <SCORE.SYSTEM.SOLV>
0

>  <SCORE.SYSTEM.norm>
0

>  <SCORE.heavy>
25

>  <SCORE.norm>
-2.04015

>  <RMSD>
0.475

$$$$
1q8n_lig
 OpenBabel11021811403D
libRbt.so/2013.1/901 2013/11/27
 25 27  0  0  0  0  0  0  0  0999 V2000
    0.5899    0.9442   -1.9023 C   0  0  0  0  0  0  0  0  0  0  0  0
    0.5147    2.0205   -3.1277 C   0  0  0  0  0  0  0  0  0  0  0  0
    2.6314   -4.5276   -3.0484 N   0  0  0  0  0  0  0  0  0  0  0  0
   -0.2213    1.8271   -4.2483 C   0  0  0  0  0  0  0  0  0  0  0  0
   -1.2753    2.5467    3.5626 N   0  0  0  0  0  0  0  0  0  0  0  0
   -0.2575    2.8272   -5.3403 C   0  0  0  0  0  0  0  0  0  0  0  0
    0.4577    3.9699   -5.2282 C   0  0  0  0  0  0  0  0  0  0  0  0
    1.2440    4.1992   -4.0386 C   0  0  0  0  0  0  0  0  0  0  0  0
    1.2700    3.2890   -3.0618 C   0  0  0  0  0  0  0  0  0  0  0  0
    1.1503   -0.5539   -2.2215 C   0  0  0  0  0  0  0  0  0  0  0  0
    1.8584   -0.8120   -3.3406 C   0  0  0  0  0  0  0  0  0  0  0  0
    2.3778   -2.1734   -3.6482 C   0  0  0  0  0  0  0  0  0  0  0  0
    2.1476   -3.2035   -2.7907 C   0  0  0  0  0  0  0  0  0  0  0  0
    1.3767   -2.9360   -1.5618 C   0  0  0  0  0  0  0  0  0  0  0  0
    0.9150   -1.7050   -1.3013 C   0  0  0  0  0  0  0  0  0  0  0  0
    0.1135    1.3389   -0.3642 C   0  0  0  0  0  0  0  0  0  0  0  0
   -0.6944    2.5852   -0.1286 C   0  0  0  0  0  0  0  0  0  0  0  0
   -1.1173    2.9545    1.0835 C   0  0  0  0  0  0  0  0  0  0  0  0
   -0.8072    2.1466    2.2687 C   0  0  0  0  0  0  0  0  0  0  0  0
   -0.0795    1.0211    2.1135 C   0  0  0  0  0  0  0  0  0  0  0  0
    0.4001    0.5952    0.7557 C   0  0  0  0  0  0  0  0  0  0  0  0
    2.1219   -5.6743   -2.3599 C   0  0  0  0  0  0  0  0  0  0  0  0
    3.6571   -4.7415   -4.0217 C   0  0  0  0  0  0  0  0  0  0  0  0
   -2.0243    3.7603    3.7195 C   0  0  0  0  0  0  0  0  0  0  0  0
   -1.0145    1.7439    4.7361 C   0  0  0  0  0  0  0  0  0  0  0  0
  1  2  1  0  0  0  0
  1 10  1  0  0  0  0
  1 16  1  0  0  0  0
  2  4  2  0  0  0  0
  2  9  1  0  0  0  0
  4  6  1  0  0  0  0
  6  7  2  0  0  0  0
  7  8  1  0  0  0  0
  8  9  2  0  0  0  0
 10 11  2  0  0  0  0
 10 15  1  0  0  0  0
 11 12  1  0  0  0  0
 12 13  2  0  0  0  0
 13  3  1  0  0  0  0
 13 14  1  0  0  0  0
 14 15  2  0  0  0  0
 16 17  2  0  0  0  0
 16 21  1  0  0  0  0
 17 18  1  0  0  0  0
 18 19  2  0  0  0  0
 19  5  1  0  0  0  0
 19 20  1  0  0  0  0
 20 21  2  0  0  0  0
 22  3  1  0  0  0  0
 23  3  1  0  0  0  0
 24  5  1  0  0  0  0
 25  5  1  0  0  0  0
M  END
>  <CHROM.1>
59.90260810,17.44559025,14.31604079,-163.49550371,-1.58441126,0.61537315
0.40955788,-1.28630758,0.06839860,1.18647868,-0.89335941

>  <Name>
1q8n_lig

>  <RI>
0

>  <Rbt.Current_Directory>
/home/itssahil/PROJECTS/Mol_Feturizer/New_Systems/rnas/1q8n

>  <Rbt.Executable>
rbdock ($Id: //depot/dev/client3/rdock/2013.1/src/exe/rbdock.cxx#4 $)

>  <Rbt.Library>
libRbt.so (2013.1, Build901 2013/11/27)

>  <Rbt.Parameter_File>
/export/apps/rDock/src/rDock_2013.1_src/data/scripts/dock_solv.prm

>  <Rbt.Receptor>
prm/pocket_docking_2.prm

>  <SCORE>
-52.4327

>  <SCORE.INTER>
-52.8423

>  <SCORE.INTER.CONST>
1

>  <SCORE.INTER.POLAR>
0

>  <SCORE.INTER.ROT>
5

>  <SCORE.INTER.SOLV>
10.5041

>  <SCORE.INTER.VDW>
-45.6629

>  <SCORE.INTER.norm>
-2.11369

>  <SCORE.INTRA>
0.290142

>  <SCORE.INTRA.DIHEDRAL>
1.03912

>  <SCORE.INTRA.DIHEDRAL.0>
2.1627

>  <SCORE.INTRA.POLAR>
0

>  <SCORE.INTRA.POLAR.0>
0

>  <SCORE.INTRA.REPUL>
0

>  <SCORE.INTRA.REPUL.0>
0

>  <SCORE.INTRA.SOLV>
0.0121799

>  <SCORE.INTRA.SOLV.lig_0>
-5.95779

>  <SCORE.INTRA.VDW>
-0.23551

>  <SCORE.INTRA.VDW.0>
3.81702

>  <SCORE.INTRA.norm>
0.0116057

>  <SCORE.RESTR>
0.119524

>  <SCORE.RESTR.CAVITY>
0.119524

>  <SCORE.RESTR.norm>
0.00478095

>  <SCORE.SYSTEM>
0

>  <SCORE.SYSTEM.CONST>
0

>  <SCORE.SYSTEM.DIHEDRAL>
0

>  <SCORE.SYSTEM.SOLV>
0

>  <SCORE.SYSTEM.norm>
0

>  <SCORE.heavy>
25

>  <SCORE.norm>
-2.09731

>  <RMSD>
0.475

$$$$
1q8n_lig
 OpenBabel11021811403D
libRbt.so/2013.1/901 2013/11/27
 25 27  0  0  0  0  0  0  0  0999 V2000
    0.5166    1.1203   -1.9061 C   0  0  0  0  0  0  0  0  0  0  0  0
    0.4861    2.1765   -3.1507 C   0  0  0  0  0  0  0  0  0  0  0  0
    2.5819   -4.3737   -2.8921 N   0  0  0  0  0  0  0  0  0  0  0  0
   -0.1956    1.9572   -4.3006 C   0  0  0  0  0  0  0  0  0  0  0  0
   -1.2645    2.4508    3.6590 N   0  0  0  0  0  0  0  0  0  0  0  0
   -0.1925    2.9398   -5.4090 C   0  0  0  0  0  0  0  0  0  0  0  0
    0.5045    4.0923   -5.2826 C   0  0  0  0  0  0  0  0  0  0  0  0
    1.2328    4.3490   -4.0622 C   0  0  0  0  0  0  0  0  0  0  0  0
    1.2238    3.4545   -3.0708 C   0  0  0  0  0  0  0  0  0  0  0  0
    1.0835   -0.3840   -2.1815 C   0  0  0  0  0  0  0  0  0  0  0  0
    1.7893   -0.6725   -3.2945 C   0  0  0  0  0  0  0  0  0  0  0  0
    2.3145   -2.0401   -3.5624 C   0  0  0  0  0  0  0  0  0  0  0  0
    2.0923   -3.0447   -2.6732 C   0  0  0  0  0  0  0  0  0  0  0  0
    1.3239   -2.7439   -1.4505 C   0  0  0  0  0  0  0  0  0  0  0  0
    0.8568   -1.5077   -1.2259 C   0  0  0  0  0  0  0  0  0  0  0  0
   -0.0109    1.5412   -0.3917 C   0  0  0  0  0  0  0  0  0  0  0  0
    0.2245    0.6117    0.7668 C   0  0  0  0  0  0  0  0  0  0  0  0
   -0.1663    0.8952    2.0123 C   0  0  0  0  0  0  0  0  0  0  0  0
   -0.8594    2.1523    2.3173 C   0  0  0  0  0  0  0  0  0  0  0  0
   -1.1011    3.0194    1.3122 C   0  0  0  0  0  0  0  0  0  0  0  0
   -0.6652    2.7122   -0.0915 C   0  0  0  0  0  0  0  0  0  0  0  0
    3.5424   -4.6759   -3.9091 C   0  0  0  0  0  0  0  0  0  0  0  0
    2.1138   -5.4549   -2.0814 C   0  0  0  0  0  0  0  0  0  0  0  0
   -0.9197    1.5660    4.7345 C   0  0  0  0  0  0  0  0  0  0  0  0
   -2.0203    3.6439    3.9667 C   0  0  0  0  0  0  0  0  0  0  0  0
  1  2  1  0  0  0  0
  1 10  1  0  0  0  0
  1 16  1  0  0  0  0
  2  4  2  0  0  0  0
  2  9  1  0  0  0  0
  4  6  1  0  0  0  0
  6  7  2  0  0  0  0
  7  8  1  0  0  0  0
  8  9  2  0  0  0  0
 10 11  2  0  0  0  0
 10 15  1  0  0  0  0
 11 12  1  0  0  0  0
 12 13  2  0  0  0  0
 13  3  1  0  0  0  0
 13 14  1  0  0  0  0
 14 15  2  0  0  0  0
 16 17  2  0  0  0  0
 16 21  1  0  0  0  0
 17 18  1  0  0  0  0
 18 19  2  0  0  0  0
 19  5  1  0  0  0  0
 19 20  1  0  0  0  0
 20 21  2  0  0  0  0
 22  3  1  0  0  0  0
 23  3  1  0  0  0  0
 24  5  1  0  0  0  0
 25  5  1  0  0  0  0
M  END
>  <CHROM.1>
58.87470101,15.12148892,-170.86082535,12.36691127,4.13728140,0.58286814,0.49983794
-1.22983832,0.08684123,1.18449676,-0.87857285

>  <Name>
1q8n_lig

>  <RI>
0

>  <Rbt.Current_Directory>
/home/itssahil/PROJECTS/Mol_Feturizer/New_Systems/rnas/1q8n

>  <Rbt.Executable>
rbdock ($Id: //depot/dev/client3/rdock/2013.1/src/exe/rbdock.cxx#4 $)

>  <Rbt.Library>
libRbt.so (2013.1, Build901 2013/11/27)

>  <Rbt.Parameter_File>
/export/apps/rDock/src/rDock_2013.1_src/data/scripts/dock_solv.prm

>  <Rbt.Receptor>
prm/pocket_docking_4.prm

>  <SCORE>
-53.8184

>  <SCORE.INTER>
-54.3258

>  <SCORE.INTER.CONST>
1

>  <SCORE.INTER.POLAR>
0

>  <SCORE.INTER.ROT>
5

>  <SCORE.INTER.SOLV>
10.462

>  <SCORE.INTER.VDW>
-46.6379

>  <SCORE.INTER.norm>
-2.17303

>  <SCORE.INTRA>
0.507409

>  <SCORE.INTRA.DIHEDRAL>
0.651304

>  <SCORE.INTRA.DIHEDRAL.0>
2.1627

>  <SCORE.INTRA.POLAR>
0

>  <SCORE.INTRA.POLAR.0>
0

>  <SCORE.INTRA.REPUL>
0

>  <SCORE.INTRA.REPUL.0>
0

>  <SCORE.INTRA.SOLV>
0.0253772

>  <SCORE.INTRA.SOLV.lig_0>
-5.95779

>  <SCORE.INTRA.VDW>
0.169068

>  <SCORE.INTRA.VDW.0>
3.81702

>  <SCORE.INTRA.norm>
0.0202964

>  <SCORE.RESTR>
0

>  <SCORE.RESTR.CAVITY>
0

>  <SCORE.RESTR.norm>
0

>  <SCORE.SYSTEM>
0

>  <SCORE.SYSTEM.CONST>
0

>  <SCORE.SYSTEM.DIHEDRAL>
0

>  <SCORE.SYSTEM.SOLV>
0

>  <SCORE.SYSTEM.norm>
0

>  <SCORE.heavy>
25

>  <SCORE.norm>
-2.15273

>  <RMSD>
0.475

$$$$
1q8n_lig
 OpenBabel11021811403D
libRbt.so/2013.1/901 2013/11/27
 25 27  0  0  0  0  0  0  0  0999 V2000
    0.5445    1.1139   -1.9417 C   0  0  0  0  0  0  0  0  0  0  0  0
    0.5277    2.1698   -3.1867 C   0  0  0  0  0  0  0  0  0  0  0  0
    2.5775   -4.3943   -2.9152 N   0  0  0  0  0  0  0  0  0  0  0  0
    1.1925    3.3500   -3.1749 C   0  0  0  0  0  0  0  0  0  0  0  0
   -1.2491    2.4641    3.6147 N   0  0  0  0  0  0  0  0  0  0  0  0
    1.1463    4.2831   -4.3243 C   0  0  0  0  0  0  0  0  0  0  0  0
    0.4260    3.9601   -5.4228 C   0  0  0  0  0  0  0  0  0  0  0  0
   -0.2849    2.7034   -5.4590 C   0  0  0  0  0  0  0  0  0  0  0  0
   -0.2371    1.8715   -4.4156 C   0  0  0  0  0  0  0  0  0  0  0  0
    1.1027   -0.3943   -2.2136 C   0  0  0  0  0  0  0  0  0  0  0  0
    1.8410   -0.6804   -3.3060 C   0  0  0  0  0  0  0  0  0  0  0  0
    2.3589   -2.0514   -3.5704 C   0  0  0  0  0  0  0  0  0  0  0  0
    2.0963   -3.0619   -2.6990 C   0  0  0  0  0  0  0  0  0  0  0  0
    1.2921   -2.7638   -1.4989 C   0  0  0  0  0  0  0  0  0  0  0  0
    0.8322   -1.5244   -1.2772 C   0  0  0  0  0  0  0  0  0  0  0  0
    0.0118    1.5388   -0.4302 C   0  0  0  0  0  0  0  0  0  0  0  0
    0.2827    0.6334    0.7396 C   0  0  0  0  0  0  0  0  0  0  0  0
   -0.1105    0.9216    1.9833 C   0  0  0  0  0  0  0  0  0  0  0  0
   -0.8417    2.1601    2.2749 C   0  0  0  0  0  0  0  0  0  0  0  0
   -1.1162    3.0050    1.2594 C   0  0  0  0  0  0  0  0  0  0  0  0
   -0.6780    2.6924   -0.1424 C   0  0  0  0  0  0  0  0  0  0  0  0
    3.5445   -4.7029   -3.9243 C   0  0  0  0  0  0  0  0  0  0  0  0
    2.0940   -5.4728   -2.1100 C   0  0  0  0  0  0  0  0  0  0  0  0
   -2.0067    3.6508    3.8907 C   0  0  0  0  0  0  0  0  0  0  0  0
   -0.9172    1.5894    4.7166 C   0  0  0  0  0  0  0  0  0  0  0  0
  1  2  1  0  0  0  0
  1 10  1  0  0  0  0
  1 16  1  0  0  0  0
  2  4  2  0  0  0  0
  2  9  1  0  0  0  0
  4  6  1  0  0  0  0
  6  7  2  0  0  0  0
  7  8  1  0  0  0  0
  8  9  2  0  0  0  0
 10 11  2  0  0  0  0
 10 15  1  0  0  0  0
 11 12  1  0  0  0  0
 12 13  2  0  0  0  0
 13  3  1  0  0  0  0
 13 14  1  0  0  0  0
 14 15  2  0  0  0  0
 16 17  2  0  0  0  0
 16 21  1  0  0  0  0
 17 18  1  0  0  0  0
 18 19  2  0  0  0  0
 19  5  1  0  0  0  0
 19 20  1  0  0  0  0
 20 21  2  0  0  0  0
 22  3  1  0  0  0  0
 23  3  1  0  0  0  0
 24  5  1  0  0  0  0
 25  5  1  0  0  0  0
M  END
>  <CHROM.1>
-120.92946348,16.80395691,-168.43915735,10.89764744,-177.69178046,0.58013549
0.47130295,-1.28417230,0.13539728,1.18468063,-0.92021052

>  <Name>
1q8n_lig

>  <RI>
0

>  <Rbt.Current_Directory>
/home/itssahil/PROJECTS/Mol_Feturizer/New_Systems/rnas/1q8n

>  <Rbt.Executable>
rbdock ($Id: //depot/dev/client3/rdock/2013.1/src/exe/rbdock.cxx#4 $)

>  <Rbt.Library>
libRbt.so (2013.1, Build901 2013/11/27)

>  <Rbt.Parameter_File>
/export/apps/rDock/src/rDock_2013.1_src/data/scripts/dock_solv.prm

>  <Rbt.Receptor>
prm/pocket_docking_2.prm

>  <SCORE>
-53.789

>  <SCORE.INTER>
-54.5359

>  <SCORE.INTER.CONST>
1

>  <SCORE.INTER.POLAR>
0

>  <SCORE.INTER.ROT>
5

>  <SCORE.INTER.SOLV>
10.335

>  <SCORE.INTER.VDW>
-46.7356

>  <SCORE.INTER.norm>
-2.18144

>  <SCORE.INTRA>
0.456266

>  <SCORE.INTRA.DIHEDRAL>
0.476011

>  <SCORE.INTRA.DIHEDRAL.0>
2.1627

>  <SCORE.INTRA.POLAR>
0

>  <SCORE.INTRA.POLAR.0>
0

>  <SCORE.INTRA.REPUL>
0

>  <SCORE.INTRA.REPUL.0>
0

>  <SCORE.INTRA.SOLV>
0.0234136

>  <SCORE.INTRA.SOLV.lig_0>
-5.95779

>  <SCORE.INTRA.VDW>
0.206554

>  <SCORE.INTRA.VDW.0>
3.81702

>  <SCORE.INTRA.norm>
0.0182506

>  <SCORE.RESTR>
0.29066

>  <SCORE.RESTR.CAVITY>
0.29066

>  <SCORE.RESTR.norm>
0.0116264

>  <SCORE.SYSTEM>
0

>  <SCORE.SYSTEM.CONST>
0

>  <SCORE.SYSTEM.DIHEDRAL>
0

>  <SCORE.SYSTEM.SOLV>
0

>  <SCORE.SYSTEM.norm>
0

>  <SCORE.heavy>
25

>  <SCORE.norm>
-2.15156

>  <RMSD>
0.476

$$$$
1q8n_lig
 OpenBabel11021811403D
libRbt.so/2013.1/901 2013/11/27
 25 27  0  0  0  0  0  0  0  0999 V2000
    0.6104    0.9706   -1.8693 C   0  0  0  0  0  0  0  0  0  0  0  0
    0.6071    2.0853   -3.0621 C   0  0  0  0  0  0  0  0  0  0  0  0
   -1.2848    2.5879    3.5357 N   0  0  0  0  0  0  0  0  0  0  0  0
    1.3360    3.2263   -3.0208 C   0  0  0  0  0  0  0  0  0  0  0  0
    2.6076   -4.5659   -2.9965 N   0  0  0  0  0  0  0  0  0  0  0  0
    1.3001    4.2154   -4.1228 C   0  0  0  0  0  0  0  0  0  0  0  0
    0.5239    3.9853   -5.2066 C   0  0  0  0  0  0  0  0  0  0  0  0
   -0.2561    2.7717   -5.2739 C   0  0  0  0  0  0  0  0  0  0  0  0
   -0.2167    1.8885   -4.2731 C   0  0  0  0  0  0  0  0  0  0  0  0
    0.0908    1.4190   -0.3897 C   0  0  0  0  0  0  0  0  0  0  0  0
   -0.4613    2.6321   -0.1803 C   0  0  0  0  0  0  0  0  0  0  0  0
   -0.9411    3.0583    1.1636 C   0  0  0  0  0  0  0  0  0  0  0  0
   -0.8336    2.2175    2.2270 C   0  0  0  0  0  0  0  0  0  0  0  0
   -0.2341    0.8868    2.0129 C   0  0  0  0  0  0  0  0  0  0  0  0
    0.1943    0.5199    0.7970 C   0  0  0  0  0  0  0  0  0  0  0  0
    1.1251   -0.5838   -2.1293 C   0  0  0  0  0  0  0  0  0  0  0  0
    1.9141   -0.9127   -3.3666 C   0  0  0  0  0  0  0  0  0  0  0  0
    2.3661   -2.1417   -3.6307 C   0  0  0  0  0  0  0  0  0  0  0  0
    2.1087   -3.2539   -2.7084 C   0  0  0  0  0  0  0  0  0  0  0  0
    1.3998   -3.0140   -1.5858 C   0  0  0  0  0  0  0  0  0  0  0  0
    0.8880   -1.6364   -1.2776 C   0  0  0  0  0  0  0  0  0  0  0  0
   -0.9931    1.8013    4.6953 C   0  0  0  0  0  0  0  0  0  0  0  0
   -2.0537    3.7795    3.7206 C   0  0  0  0  0  0  0  0  0  0  0  0
    3.6515   -4.7487   -3.9637 C   0  0  0  0  0  0  0  0  0  0  0  0
    2.0832   -5.7326   -2.3232 C   0  0  0  0  0  0  0  0  0  0  0  0
  1  2  1  0  0  0  0
  1 10  1  0  0  0  0
  1 16  1  0  0  0  0
  2  4  2  0  0  0  0
  2  9  1  0  0  0  0
  4  6  1  0  0  0  0
  6  7  2  0  0  0  0
  7  8  1  0  0  0  0
  8  9  2  0  0  0  0
 10 11  2  0  0  0  0
 10 15  1  0  0  0  0
 11 12  1  0  0  0  0
 12 13  2  0  0  0  0
 13  3  1  0  0  0  0
 13 14  1  0  0  0  0
 14 15  2  0  0  0  0
 16 17  2  0  0  0  0
 16 21  1  0  0  0  0
 17 18  1  0  0  0  0
 18 19  2  0  0  0  0
 19  5  1  0  0  0  0
 19 20  1  0  0  0  0
 20 21  2  0  0  0  0
 22  3  1  0  0  0  0
 23  3  1  0  0  0  0
 24  5  1  0  0  0  0
 25  5  1  0  0  0  0
M  END
>  <CHROM.1>
61.56339640,6.94959655,15.16342404,-170.17094253,17.19843406,0.62279581,0.40973574
-1.27592996,3.12479167,-1.18964411,2.28674894

>  <Name>
1q8n_lig

>  <RI>
0

>  <Rbt.Current_Directory>
/home/itssahil/PROJECTS/Mol_Feturizer/New_Systems/rnas/1q8n

>  <Rbt.Executable>
rbdock ($Id: //depot/dev/client3/rdock/2013.1/src/exe/rbdock.cxx#4 $)

>  <Rbt.Library>
libRbt.so (2013.1, Build901 2013/11/27)

>  <Rbt.Parameter_File>
/export/apps/rDock/src/rDock_2013.1_src/data/scripts/dock_solv.prm

>  <Rbt.Receptor>
prm/pocket_docking_2.prm

>  <SCORE>
-51.8559

>  <SCORE.INTER>
-52.4374

>  <SCORE.INTER.CONST>
1

>  <SCORE.INTER.POLAR>
0

>  <SCORE.INTER.ROT>
5

>  <SCORE.INTER.SOLV>
10.4963

>  <SCORE.INTER.VDW>
-45.3904

>  <SCORE.INTER.norm>
-2.0975

>  <SCORE.INTRA>
0.441774

>  <SCORE.INTRA.DIHEDRAL>
1.48729

>  <SCORE.INTRA.DIHEDRAL.0>
2.1627

>  <SCORE.INTRA.POLAR>
0

>  <SCORE.INTRA.POLAR.0>
0

>  <SCORE.INTRA.REPUL>
0

>  <SCORE.INTRA.REPUL.0>
0

>  <SCORE.INTRA.SOLV>
0.0154281

>  <SCORE.INTRA.SOLV.lig_0>
-5.95779

>  <SCORE.INTRA.VDW>
-0.309585

>  <SCORE.INTRA.VDW.0>
3.81702

>  <SCORE.INTRA.norm>
0.0176709

>  <SCORE.RESTR>
0.139747

>  <SCORE.RESTR.CAVITY>
0.139747

>  <SCORE.RESTR.norm>
0.00558988

>  <SCORE.SYSTEM>
0

>  <SCORE.SYSTEM.CONST>
0

>  <SCORE.SYSTEM.DIHEDRAL>
0

>  <SCORE.SYSTEM.SOLV>
0

>  <SCORE.SYSTEM.norm>
0

>  <SCORE.heavy>
25

>  <SCORE.norm>
-2.07424

>  <RMSD>
0.476

$$$$
1q8n_lig
 OpenBabel11021811403D
libRbt.so/2013.1/901 2013/11/27
 25 27  0  0  0  0  0  0  0  0999 V2000
    0.5612    0.9144   -1.8666 C   0  0  0  0  0  0  0  0  0  0  0  0
    0.5197    2.0269   -3.0608 C   0  0  0  0  0  0  0  0  0  0  0  0
   -1.2815    2.5446    3.5527 N   0  0  0  0  0  0  0  0  0  0  0  0
   -0.1602    1.8545   -4.2196 C   0  0  0  0  0  0  0  0  0  0  0  0
    2.6401   -4.5876   -3.0150 N   0  0  0  0  0  0  0  0  0  0  0  0
   -0.1674    2.8875   -5.2811 C   0  0  0  0  0  0  0  0  0  0  0  0
    0.5180    4.0398   -5.1013 C   0  0  0  0  0  0  0  0  0  0  0  0
    1.2442    4.2469   -3.8701 C   0  0  0  0  0  0  0  0  0  0  0  0
    1.2445    3.3072   -2.9214 C   0  0  0  0  0  0  0  0  0  0  0  0
    0.0573    1.3562   -0.3796 C   0  0  0  0  0  0  0  0  0  0  0  0
    0.3289    0.5999    0.7042 C   0  0  0  0  0  0  0  0  0  0  0  0
   -0.1232    0.9877    2.0692 C   0  0  0  0  0  0  0  0  0  0  0  0
   -0.8298    2.1345    2.2560 C   0  0  0  0  0  0  0  0  0  0  0  0
   -1.1325    2.9728    1.0806 C   0  0  0  0  0  0  0  0  0  0  0  0
   -0.7195    2.6080   -0.1413 C   0  0  0  0  0  0  0  0  0  0  0  0
    1.0990   -0.6312   -2.1325 C   0  0  0  0  0  0  0  0  0  0  0  0
    1.8910   -0.9441   -3.3720 C   0  0  0  0  0  0  0  0  0  0  0  0
    2.3610   -2.1652   -3.6408 C   0  0  0  0  0  0  0  0  0  0  0  0
    2.1219   -3.2842   -2.7218 C   0  0  0  0  0  0  0  0  0  0  0  0
    1.4111   -3.0587   -1.5973 C   0  0  0  0  0  0  0  0  0  0  0  0
    0.8791   -1.6899   -1.2839 C   0  0  0  0  0  0  0  0  0  0  0  0
   -2.0290    3.7481    3.7559 C   0  0  0  0  0  0  0  0  0  0  0  0
   -0.9914    1.7438    4.7015 C   0  0  0  0  0  0  0  0  0  0  0  0
    2.1075   -5.7450   -2.3553 C   0  0  0  0  0  0  0  0  0  0  0  0
    3.7006   -4.7739   -3.9794 C   0  0  0  0  0  0  0  0  0  0  0  0
  1  2  1  0  0  0  0
  1 10  1  0  0  0  0
  1 16  1  0  0  0  0
  2  4  2  0  0  0  0
  2  9  1  0  0  0  0
  4  6  1  0  0  0  0
  6  7  2  0  0  0  0
  7  8  1  0  0  0  0
  8  9  2  0  0  0  0
 10 11  2  0  0  0  0
 10 15  1  0  0  0  0
 11 12  1  0  0  0  0
 12 13  2  0  0  0  0
 13  3  1  0  0  0  0
 13 14  1  0  0  0  0
 14 15  2  0  0  0  0
 16 17  2  0  0  0  0
 16 21  1  0  0  0  0
 17 18  1  0  0  0  0
 18 19  2  0  0  0  0
 19  5  1  0  0  0  0
 19 20  1  0  0  0  0
 20 21  2  0  0  0  0
 22  3  1  0  0  0  0
 23  3  1  0  0  0  0
 24  5  1  0  0  0  0
 25  5  1  0  0  0  0
M  END
>  <CHROM.1>
-122.78691096,-165.47135644,16.03858263,-179.80317782,-161.98094492,0.61281219
0.39535131,-1.25994893,3.13132208,-1.18654828,2.28162793

>  <Name>
1q8n_lig

>  <RI>
0

>  <Rbt.Current_Directory>
/home/itssahil/PROJECTS/Mol_Feturizer/New_Systems/rnas/1q8n

>  <Rbt.Executable>
rbdock ($Id: //depot/dev/client3/rdock/2013.1/src/exe/rbdock.cxx#4 $)

>  <Rbt.Library>
libRbt.so (2013.1, Build901 2013/11/27)

>  <Rbt.Parameter_File>
/export/apps/rDock/src/rDock_2013.1_src/data/scripts/dock_solv.prm

>  <Rbt.Receptor>
prm/pocket_docking_2.prm

>  <SCORE>
-51.5006

>  <SCORE.INTER>
-52.0815

>  <SCORE.INTER.CONST>
1

>  <SCORE.INTER.POLAR>
0

>  <SCORE.INTER.ROT>
5

>  <SCORE.INTER.SOLV>
10.5769

>  <SCORE.INTER.VDW>
-45.18

>  <SCORE.INTER.norm>
-2.08326

>  <SCORE.INTRA>
0.425052

>  <SCORE.INTRA.DIHEDRAL>
1.22074

>  <SCORE.INTRA.DIHEDRAL.0>
2.1627

>  <SCORE.INTRA.POLAR>
0

>  <SCORE.INTRA.POLAR.0>
0

>  <SCORE.INTRA.REPUL>
0

>  <SCORE.INTRA.REPUL.0>
0

>  <SCORE.INTRA.SOLV>
0.016347

>  <SCORE.INTRA.SOLV.lig_0>
-5.95779

>  <SCORE.INTRA.VDW>
-0.19349

>  <SCORE.INTRA.VDW.0>
3.81702

>  <SCORE.INTRA.norm>
0.0170021

>  <SCORE.RESTR>
0.155863

>  <SCORE.RESTR.CAVITY>
0.155863

>  <SCORE.RESTR.norm>
0.00623451

>  <SCORE.SYSTEM>
0

>  <SCORE.SYSTEM.CONST>
0

>  <SCORE.SYSTEM.DIHEDRAL>
0

>  <SCORE.SYSTEM.SOLV>
0

>  <SCORE.SYSTEM.norm>
0

>  <SCORE.heavy>
25

>  <SCORE.norm>
-2.06002

>  <RMSD>
0.479

$$$$
1q8n_lig
 OpenBabel11021811403D
libRbt.so/2013.1/901 2013/11/27
 25 27  0  0  0  0  0  0  0  0999 V2000
    0.5631    0.9181   -1.8770 C   0  0  0  0  0  0  0  0  0  0  0  0
    0.5230    2.0282   -3.0735 C   0  0  0  0  0  0  0  0  0  0  0  0
   -1.2815    2.5606    3.5379 N   0  0  0  0  0  0  0  0  0  0  0  0
   -0.1514    1.8514   -4.2349 C   0  0  0  0  0  0  0  0  0  0  0  0
    2.6387   -4.5877   -3.0134 N   0  0  0  0  0  0  0  0  0  0  0  0
   -0.1574    2.8823   -5.2984 C   0  0  0  0  0  0  0  0  0  0  0  0
    0.5236    4.0371   -5.1178 C   0  0  0  0  0  0  0  0  0  0  0  0
    1.2439    4.2489   -3.8841 C   0  0  0  0  0  0  0  0  0  0  0  0
    1.2432    3.3110   -2.9335 C   0  0  0  0  0  0  0  0  0  0  0  0
    0.0583    1.3631   -0.3913 C   0  0  0  0  0  0  0  0  0  0  0  0
    0.2691    0.5759    0.6839 C   0  0  0  0  0  0  0  0  0  0  0  0
   -0.1848    0.9661    2.0476 C   0  0  0  0  0  0  0  0  0  0  0  0
   -0.8305    2.1470    2.2421 C   0  0  0  0  0  0  0  0  0  0  0  0
   -1.0663    3.0194    1.0762 C   0  0  0  0  0  0  0  0  0  0  0  0
   -0.6527    2.6519   -0.1447 C   0  0  0  0  0  0  0  0  0  0  0  0
    1.1001   -0.6284   -2.1394 C   0  0  0  0  0  0  0  0  0  0  0  0
    1.8873   -0.9457   -3.3808 C   0  0  0  0  0  0  0  0  0  0  0  0
    2.3566   -2.1677   -3.6470 C   0  0  0  0  0  0  0  0  0  0  0  0
    2.1213   -3.2833   -2.7230 C   0  0  0  0  0  0  0  0  0  0  0  0
    1.4150   -3.0539   -1.5965 C   0  0  0  0  0  0  0  0  0  0  0  0
    0.8839   -1.6841   -1.2861 C   0  0  0  0  0  0  0  0  0  0  0  0
   -2.0162    3.7722    3.7402 C   0  0  0  0  0  0  0  0  0  0  0  0
   -1.0039    1.7553    4.6866 C   0  0  0  0  0  0  0  0  0  0  0  0
    2.0983   -5.7444   -2.3590 C   0  0  0  0  0  0  0  0  0  0  0  0
    3.7062   -4.7755   -3.9698 C   0  0  0  0  0  0  0  0  0  0  0  0
  1  2  1  0  0  0  0
  1 10  1  0  0  0  0
  1 16  1  0  0  0  0
  2  4  2  0  0  0  0
  2  9  1  0  0  0  0
  4  6  1  0  0  0  0
  6  7  2  0  0  0  0
  7  8  1  0  0  0  0
  8  9  2  0  0  0  0
 10 11  2  0  0  0  0
 10 15  1  0  0  0  0
 11 12  1  0  0  0  0
 12 13  2  0  0  0  0
 13  3  1  0  0  0  0
 13 14  1  0  0  0  0
 14 15  2  0  0  0  0
 16 17  2  0  0  0  0
 16 21  1  0  0  0  0
 17 18  1  0  0  0  0
 18 19  2  0  0  0  0
 19  5  1  0  0  0  0
 19 20  1  0  0  0  0
 20 21  2  0  0  0  0
 22  3  1  0  0  0  0
 23  3  1  0  0  0  0
 24  5  1  0  0  0  0
 25  5  1  0  0  0  0
M  END
>  <CHROM.1>
-123.08122646,-168.89282940,15.74996276,-177.02962895,-161.24400178,0.61420135
0.40044661,-1.26928893,3.13877955,-1.18745316,2.28674112

>  <Name>
1q8n_lig

>  <RI>
0

>  <Rbt.Current_Directory>
/home/itssahil/PROJECTS/Mol_Feturizer/New_Systems/rnas/1q8n

>  <Rbt.Executable>
rbdock ($Id: //depot/dev/client3/rdock/2013.1/src/exe/rbdock.cxx#4 $)

>  <Rbt.Library>
libRbt.so (2013.1, Build901 2013/11/27)

>  <Rbt.Parameter_File>
/export/apps/rDock/src/rDock_2013.1_src/data/scripts/dock_solv.prm

>  <Rbt.Receptor>
prm/pocket_docking_2.prm

>  <SCORE>
-51.4285

>  <SCORE.INTER>
-52.0612

>  <SCORE.INTER.CONST>
1

>  <SCORE.INTER.POLAR>
0

>  <SCORE.INTER.ROT>
5

>  <SCORE.INTER.SOLV>
10.5699

>  <SCORE.INTER.VDW>
-45.1641

>  <SCORE.INTER.norm>
-2.08245

>  <SCORE.INTRA>
0.49246

>  <SCORE.INTRA.DIHEDRAL>
1.35345

>  <SCORE.INTRA.DIHEDRAL.0>
2.1627

>  <SCORE.INTRA.POLAR>
0

>  <SCORE.INTRA.POLAR.0>
0

>  <SCORE.INTRA.REPUL>
0

>  <SCORE.INTRA.REPUL.0>
0

>  <SCORE.INTRA.SOLV>
0.0190442

>  <SCORE.INTRA.SOLV.lig_0>
-5.95779

>  <SCORE.INTRA.VDW>
-0.193784

>  <SCORE.INTRA.VDW.0>
3.81702

>  <SCORE.INTRA.norm>
0.0196984

>  <SCORE.RESTR>
0.140212

>  <SCORE.RESTR.CAVITY>
0.140212

>  <SCORE.RESTR.norm>
0.00560846

>  <SCORE.SYSTEM>
0

>  <SCORE.SYSTEM.CONST>
0

>  <SCORE.SYSTEM.DIHEDRAL>
0

>  <SCORE.SYSTEM.SOLV>
0

>  <SCORE.SYSTEM.norm>
0

>  <SCORE.heavy>
25

>  <SCORE.norm>
-2.05714

>  <RMSD>
0.479

$$$$
1q8n_lig
 OpenBabel11021811403D
libRbt.so/2013.1/901 2013/11/27
 25 27  0  0  0  0  0  0  0  0999 V2000
    0.5300    1.1124   -1.8886 C   0  0  0  0  0  0  0  0  0  0  0  0
    0.5187    2.1682   -3.1338 C   0  0  0  0  0  0  0  0  0  0  0  0
    2.5731   -4.3870   -2.8908 N   0  0  0  0  0  0  0  0  0  0  0  0
    1.1726    3.3544   -3.1141 C   0  0  0  0  0  0  0  0  0  0  0  0
   -1.2789    2.4686    3.6613 N   0  0  0  0  0  0  0  0  0  0  0  0
    1.1318    4.2870   -4.2640 C   0  0  0  0  0  0  0  0  0  0  0  0
    0.4277    3.9576   -5.3711 C   0  0  0  0  0  0  0  0  0  0  0  0
   -0.2714    2.6946   -5.4157 C   0  0  0  0  0  0  0  0  0  0  0  0
   -0.2285    1.8630   -4.3718 C   0  0  0  0  0  0  0  0  0  0  0  0
    1.0886   -0.3961   -2.1582 C   0  0  0  0  0  0  0  0  0  0  0  0
    0.7822   -1.4142   -1.3276 C   0  0  0  0  0  0  0  0  0  0  0  0
    1.2832   -2.7976   -1.5581 C   0  0  0  0  0  0  0  0  0  0  0  0
    2.0721   -3.0696   -2.6318 C   0  0  0  0  0  0  0  0  0  0  0  0
    2.4139   -1.9669   -3.5502 C   0  0  0  0  0  0  0  0  0  0  0  0
    1.9559   -0.7272   -3.3267 C   0  0  0  0  0  0  0  0  0  0  0  0
   -0.0084    1.5376   -0.3793 C   0  0  0  0  0  0  0  0  0  0  0  0
    0.2912    0.6515    0.7982 C   0  0  0  0  0  0  0  0  0  0  0  0
   -0.1050    0.9413    2.0406 C   0  0  0  0  0  0  0  0  0  0  0  0
   -0.8684    2.1624    2.3230 C   0  0  0  0  0  0  0  0  0  0  0  0
   -1.1693    2.9895    1.3003 C   0  0  0  0  0  0  0  0  0  0  0  0
   -0.7280    2.6750   -0.1001 C   0  0  0  0  0  0  0  0  0  0  0  0
    2.0998   -5.5371   -2.1826 C   0  0  0  0  0  0  0  0  0  0  0  0
    3.5800   -4.5905   -3.8859 C   0  0  0  0  0  0  0  0  0  0  0  0
   -2.0231    3.6641    3.9360 C   0  0  0  0  0  0  0  0  0  0  0  0
   -0.9637    1.5873    4.7629 C   0  0  0  0  0  0  0  0  0  0  0  0
  1  2  1  0  0  0  0
  1 10  1  0  0  0  0
  1 16  1  0  0  0  0
  2  4  2  0  0  0  0
  2  9  1  0  0  0  0
  4  6  1  0  0  0  0
  6  7  2  0  0  0  0
  7  8  1  0  0  0  0
  8  9  2  0  0  0  0
 10 11  2  0  0  0  0
 10 15  1  0  0  0  0
 11 12  1  0  0  0  0
 12 13  2  0  0  0  0
 13  3  1  0  0  0  0
 13 14  1  0  0  0  0
 14 15  2  0  0  0  0
 16 17  2  0  0  0  0
 16 21  1  0  0  0  0
 17 18  1  0  0  0  0
 18 19  2  0  0  0  0
 19  5  1  0  0  0  0
 19 20  1  0  0  0  0
 20 21  2  0  0  0  0
 22  3  1  0  0  0  0
 23  3  1  0  0  0  0
 24  5  1  0  0  0  0
 25  5  1  0  0  0  0
M  END
>  <CHROM.1>
-121.64570832,-160.59794452,-166.71000377,10.95570381,179.88468484,0.57415014
0.47831567,-1.25272661,0.13539404,1.18115258,-0.91267834

>  <Name>
1q8n_lig

>  <RI>
0

>  <Rbt.Current_Directory>
/home/itssahil/PROJECTS/Mol_Feturizer/New_Systems/rnas/1q8n

>  <Rbt.Executable>
rbdock ($Id: //depot/dev/client3/rdock/2013.1/src/exe/rbdock.cxx#4 $)

>  <Rbt.Library>
libRbt.so (2013.1, Build901 2013/11/27)

>  <Rbt.Parameter_File>
/export/apps/rDock/src/rDock_2013.1_src/data/scripts/dock_solv.prm

>  <Rbt.Receptor>
prm/pocket_docking_2.prm

>  <SCORE>
-53.1685

>  <SCORE.INTER>
-53.9608

>  <SCORE.INTER.CONST>
1

>  <SCORE.INTER.POLAR>
0

>  <SCORE.INTER.ROT>
5

>  <SCORE.INTER.SOLV>
10.3774

>  <SCORE.INTER.VDW>
-46.3663

>  <SCORE.INTER.norm>
-2.15843

>  <SCORE.INTRA>
0.456287

>  <SCORE.INTRA.DIHEDRAL>
0.461937

>  <SCORE.INTRA.DIHEDRAL.0>
2.1627

>  <SCORE.INTRA.POLAR>
0

>  <SCORE.INTRA.POLAR.0>
0

>  <SCORE.INTRA.REPUL>
0

>  <SCORE.INTRA.REPUL.0>
0

>  <SCORE.INTRA.SOLV>
0.0203399

>  <SCORE.INTRA.SOLV.lig_0>
-5.95779

>  <SCORE.INTRA.VDW>
0.215149

>  <SCORE.INTRA.VDW.0>
3.81702

>  <SCORE.INTRA.norm>
0.0182515

>  <SCORE.RESTR>
0.33601

>  <SCORE.RESTR.CAVITY>
0.33601

>  <SCORE.RESTR.norm>
0.0134404

>  <SCORE.SYSTEM>
0

>  <SCORE.SYSTEM.CONST>
0

>  <SCORE.SYSTEM.DIHEDRAL>
0

>  <SCORE.SYSTEM.SOLV>
0

>  <SCORE.SYSTEM.norm>
0

>  <SCORE.heavy>
25

>  <SCORE.norm>
-2.12674

>  <RMSD>
0.479

$$$$
1q8n_lig
 OpenBabel11021811403D
libRbt.so/2013.1/901 2013/11/27
 25 27  0  0  0  0  0  0  0  0999 V2000
    0.5773    0.9288   -1.8797 C   0  0  0  0  0  0  0  0  0  0  0  0
    0.5025    1.9977   -3.1114 C   0  0  0  0  0  0  0  0  0  0  0  0
    2.6352   -4.5364   -3.0279 N   0  0  0  0  0  0  0  0  0  0  0  0
   -0.2128    1.7863   -4.2422 C   0  0  0  0  0  0  0  0  0  0  0  0
   -1.2915    2.5665    3.5736 N   0  0  0  0  0  0  0  0  0  0  0  0
   -0.2494    2.7805   -5.3396 C   0  0  0  0  0  0  0  0  0  0  0  0
    0.4444    3.9359   -5.2223 C   0  0  0  0  0  0  0  0  0  0  0  0
    1.2082    4.1843   -4.0220 C   0  0  0  0  0  0  0  0  0  0  0  0
    1.2348    3.2794   -3.0404 C   0  0  0  0  0  0  0  0  0  0  0  0
    1.1401   -0.5704   -2.1893 C   0  0  0  0  0  0  0  0  0  0  0  0
    0.8802   -1.6006   -1.3577 C   0  0  0  0  0  0  0  0  0  0  0  0
    1.3859   -2.9757   -1.6244 C   0  0  0  0  0  0  0  0  0  0  0  0
    2.1314   -3.2275   -2.7334 C   0  0  0  0  0  0  0  0  0  0  0  0
    2.4220   -2.1115   -3.6532 C   0  0  0  0  0  0  0  0  0  0  0  0
    1.9605   -0.8794   -3.3970 C   0  0  0  0  0  0  0  0  0  0  0  0
    0.0980    1.3318   -0.3446 C   0  0  0  0  0  0  0  0  0  0  0  0
   -0.6708    2.6030   -0.1111 C   0  0  0  0  0  0  0  0  0  0  0  0
   -1.0940    2.9804    1.0983 C   0  0  0  0  0  0  0  0  0  0  0  0
   -0.8232    2.1572    2.2827 C   0  0  0  0  0  0  0  0  0  0  0  0
   -0.1314    1.0090    2.1293 C   0  0  0  0  0  0  0  0  0  0  0  0
    0.3481    0.5737    0.7745 C   0  0  0  0  0  0  0  0  0  0  0  0
    3.6536   -4.7602   -4.0083 C   0  0  0  0  0  0  0  0  0  0  0  0
    2.1228   -5.6769   -2.3336 C   0  0  0  0  0  0  0  0  0  0  0  0
   -1.0206    1.7636    4.7314 C   0  0  0  0  0  0  0  0  0  0  0  0
   -2.0382    3.7919    3.7470 C   0  0  0  0  0  0  0  0  0  0  0  0
  1  2  1  0  0  0  0
  1 10  1  0  0  0  0
  1 16  1  0  0  0  0
  2  4  2  0  0  0  0
  2  9  1  0  0  0  0
  4  6  1  0  0  0  0
  6  7  2  0  0  0  0
  7  8  1  0  0  0  0
  8  9  2  0  0  0  0
 10 11  2  0  0  0  0
 10 15  1  0  0  0  0
 11 12  1  0  0  0  0
 12 13  2  0  0  0  0
 13  3  1  0  0  0  0
 13 14  1  0  0  0  0
 14 15  2  0  0  0  0
 16 17  2  0  0  0  0
 16 21  1  0  0  0  0
 17 18  1  0  0  0  0
 18 19  2  0  0  0  0
 19  5  1  0  0  0  0
 19 20  1  0  0  0  0
 20 21  2  0  0  0  0
 22  3  1  0  0  0  0
 23  3  1  0  0  0  0
 24  5  1  0  0  0  0
 25  5  1  0  0  0  0
M  END
>  <CHROM.1>
58.69670058,-160.63240177,12.19049520,-165.69596406,-179.71570736,0.61060730
0.40557254,-1.27864118,0.07210364,1.18527436,-0.89602901

>  <Name>
1q8n_lig

>  <RI>
0

>  <Rbt.Current_Directory>
/home/itssahil/PROJECTS/Mol_Feturizer/New_Systems/rnas/1q8n

>  <Rbt.Executable>
rbdock ($Id: //depot/dev/client3/rdock/2013.1/src/exe/rbdock.cxx#4 $)

>  <Rbt.Library>
libRbt.so (2013.1, Build901 2013/11/27)

>  <Rbt.Parameter_File>
/export/apps/rDock/src/rDock_2013.1_src/data/scripts/dock_solv.prm

>  <Rbt.Receptor>
prm/pocket_docking_2.prm

>  <SCORE>
-51.8234

>  <SCORE.INTER>
-52.3165

>  <SCORE.INTER.CONST>
1

>  <SCORE.INTER.POLAR>
0

>  <SCORE.INTER.ROT>
5

>  <SCORE.INTER.SOLV>
10.5265

>  <SCORE.INTER.VDW>
-45.3198

>  <SCORE.INTER.norm>
-2.09266

>  <SCORE.INTRA>
0.346076

>  <SCORE.INTRA.DIHEDRAL>
0.779419

>  <SCORE.INTRA.DIHEDRAL.0>
2.1627

>  <SCORE.INTRA.POLAR>
0

>  <SCORE.INTRA.POLAR.0>
0

>  <SCORE.INTRA.REPUL>
0

>  <SCORE.INTRA.REPUL.0>
0

>  <SCORE.INTRA.SOLV>
0.0130177

>  <SCORE.INTRA.SOLV.lig_0>
-5.95779

>  <SCORE.INTRA.VDW>
-0.0501425

>  <SCORE.INTRA.VDW.0>
3.81702

>  <SCORE.INTRA.norm>
0.013843

>  <SCORE.RESTR>
0.146995

>  <SCORE.RESTR.CAVITY>
0.146995

>  <SCORE.RESTR.norm>
0.00587981

>  <SCORE.SYSTEM>
0

>  <SCORE.SYSTEM.CONST>
0

>  <SCORE.SYSTEM.DIHEDRAL>
0

>  <SCORE.SYSTEM.SOLV>
0

>  <SCORE.SYSTEM.norm>
0

>  <SCORE.heavy>
25

>  <SCORE.norm>
-2.07294

>  <RMSD>
0.480

$$$$
1q8n_lig
 OpenBabel11021811403D
libRbt.so/2013.1/901 2013/11/27
 25 27  0  0  0  0  0  0  0  0999 V2000
    0.5727    0.9282   -1.8763 C   0  0  0  0  0  0  0  0  0  0  0  0
    0.4985    1.9945   -3.1104 C   0  0  0  0  0  0  0  0  0  0  0  0
    2.6370   -4.5375   -3.0106 N   0  0  0  0  0  0  0  0  0  0  0  0
   -0.2087    1.7767   -4.2450 C   0  0  0  0  0  0  0  0  0  0  0  0
   -1.2973    2.5810    3.5720 N   0  0  0  0  0  0  0  0  0  0  0  0
   -0.2451    2.7686   -5.3443 C   0  0  0  0  0  0  0  0  0  0  0  0
    0.4406    3.9286   -5.2250 C   0  0  0  0  0  0  0  0  0  0  0  0
    1.1958    4.1839   -4.0206 C   0  0  0  0  0  0  0  0  0  0  0  0
    1.2223    3.2809   -3.0373 C   0  0  0  0  0  0  0  0  0  0  0  0
    1.1374   -0.5711   -2.1821 C   0  0  0  0  0  0  0  0  0  0  0  0
    0.8904   -1.5965   -1.3407 C   0  0  0  0  0  0  0  0  0  0  0  0
    1.3979   -2.9717   -1.6038 C   0  0  0  0  0  0  0  0  0  0  0  0
    2.1319   -3.2284   -2.7194 C   0  0  0  0  0  0  0  0  0  0  0  0
    2.4083   -2.1176   -3.6499 C   0  0  0  0  0  0  0  0  0  0  0  0
    1.9454   -0.8854   -3.3968 C   0  0  0  0  0  0  0  0  0  0  0  0
    0.0912    1.3339   -0.3427 C   0  0  0  0  0  0  0  0  0  0  0  0
   -0.6378    2.6278   -0.1059 C   0  0  0  0  0  0  0  0  0  0  0  0
   -1.0609    3.0088    1.1025 C   0  0  0  0  0  0  0  0  0  0  0  0
   -0.8295    2.1673    2.2823 C   0  0  0  0  0  0  0  0  0  0  0  0
   -0.1742    0.9982    2.1259 C   0  0  0  0  0  0  0  0  0  0  0  0
    0.3047    0.5588    0.7722 C   0  0  0  0  0  0  0  0  0  0  0  0
    3.6847   -4.7582   -3.9605 C   0  0  0  0  0  0  0  0  0  0  0  0
    2.0960   -5.6814   -2.3443 C   0  0  0  0  0  0  0  0  0  0  0  0
   -1.0050    1.7948    4.7360 C   0  0  0  0  0  0  0  0  0  0  0  0
   -2.0651    3.7944    3.7378 C   0  0  0  0  0  0  0  0  0  0  0  0
  1  2  1  0  0  0  0
  1 10  1  0  0  0  0
  1 16  1  0  0  0  0
  2  4  2  0  0  0  0
  2  9  1  0  0  0  0
  4  6  1  0  0  0  0
  6  7  2  0  0  0  0
  7  8  1  0  0  0  0
  8  9  2  0  0  0  0
 10 11  2  0  0  0  0
 10 15  1  0  0  0  0
 11 12  1  0  0  0  0
 12 13  2  0  0  0  0
 13  3  1  0  0  0  0
 13 14  1  0  0  0  0
 14 15  2  0  0  0  0
 16 17  2  0  0  0  0
 16 21  1  0  0  0  0
 17 18  1  0  0  0  0
 18 19  2  0  0  0  0
 19  5  1  0  0  0  0
 19 20  1  0  0  0  0
 20 21  2  0  0  0  0
 22  3  1  0  0  0  0
 23  3  1  0  0  0  0
 24  5  1  0  0  0  0
 25  5  1  0  0  0  0
M  END
>  <CHROM.1>
58.28817088,-161.40728744,10.09778491,-163.00246845,-176.47134230,0.60738680
0.40764277,-1.27396850,0.07041330,1.18492504,-0.89725544

>  <Name>
1q8n_lig

>  <RI>
0

>  <Rbt.Current_Directory>
/home/itssahil/PROJECTS/Mol_Feturizer/New_Systems/rnas/1q8n

>  <Rbt.Executable>
rbdock ($Id: //depot/dev/client3/rdock/2013.1/src/exe/rbdock.cxx#4 $)

>  <Rbt.Library>
libRbt.so (2013.1, Build901 2013/11/27)

>  <Rbt.Parameter_File>
/export/apps/rDock/src/rDock_2013.1_src/data/scripts/dock_solv.prm

>  <Rbt.Receptor>
prm/pocket_docking_2.prm

>  <SCORE>
-51.7602

>  <SCORE.INTER>
-52.3309

>  <SCORE.INTER.CONST>
1

>  <SCORE.INTER.POLAR>
0

>  <SCORE.INTER.ROT>
5

>  <SCORE.INTER.SOLV>
10.5271

>  <SCORE.INTER.VDW>
-45.3296

>  <SCORE.INTER.norm>
-2.09323

>  <SCORE.INTRA>
0.43286

>  <SCORE.INTRA.DIHEDRAL>
1.14006

>  <SCORE.INTRA.DIHEDRAL.0>
2.1627

>  <SCORE.INTRA.POLAR>
0

>  <SCORE.INTRA.POLAR.0>
0

>  <SCORE.INTRA.REPUL>
0

>  <SCORE.INTRA.REPUL.0>
0

>  <SCORE.INTRA.SOLV>
0.0153029

>  <SCORE.INTRA.SOLV.lig_0>
-5.95779

>  <SCORE.INTRA.VDW>
-0.144823

>  <SCORE.INTRA.VDW.0>
3.81702

>  <SCORE.INTRA.norm>
0.0173144

>  <SCORE.RESTR>
0.137798

>  <SCORE.RESTR.CAVITY>
0.137798

>  <SCORE.RESTR.norm>
0.00551193

>  <SCORE.SYSTEM>
0

>  <SCORE.SYSTEM.CONST>
0

>  <SCORE.SYSTEM.DIHEDRAL>
0

>  <SCORE.SYSTEM.SOLV>
0

>  <SCORE.SYSTEM.norm>
0

>  <SCORE.heavy>
25

>  <SCORE.norm>
-2.07041

>  <RMSD>
0.480

$$$$
1q8n_lig
 OpenBabel11021811403D
libRbt.so/2013.1/901 2013/11/27
 25 27  0  0  0  0  0  0  0  0999 V2000
    0.5823    0.9439   -1.9006 C   0  0  0  0  0  0  0  0  0  0  0  0
    0.5054    2.0173   -3.1283 C   0  0  0  0  0  0  0  0  0  0  0  0
    2.6320   -4.5273   -3.0350 N   0  0  0  0  0  0  0  0  0  0  0  0
   -0.2187    1.8138   -4.2549 C   0  0  0  0  0  0  0  0  0  0  0  0
   -1.2696    2.5676    3.5626 N   0  0  0  0  0  0  0  0  0  0  0  0
   -0.2570    2.8118   -5.3487 C   0  0  0  0  0  0  0  0  0  0  0  0
    0.4442    3.9628   -5.2323 C   0  0  0  0  0  0  0  0  0  0  0  0
    1.2175    4.2029   -4.0364 C   0  0  0  0  0  0  0  0  0  0  0  0
    1.2455    3.2946   -3.0580 C   0  0  0  0  0  0  0  0  0  0  0  0
    1.1450   -0.5541   -2.2166 C   0  0  0  0  0  0  0  0  0  0  0  0
    1.8600   -0.8118   -3.3314 C   0  0  0  0  0  0  0  0  0  0  0  0
    2.3815   -2.1731   -3.6360 C   0  0  0  0  0  0  0  0  0  0  0  0
    2.1463   -3.2034   -2.7801 C   0  0  0  0  0  0  0  0  0  0  0  0
    1.3679   -2.9363   -1.5559 C   0  0  0  0  0  0  0  0  0  0  0  0
    0.9043   -1.7053   -1.2980 C   0  0  0  0  0  0  0  0  0  0  0  0
    0.1055    1.3411   -0.3633 C   0  0  0  0  0  0  0  0  0  0  0  0
   -0.6142    2.6382   -0.1156 C   0  0  0  0  0  0  0  0  0  0  0  0
   -1.0332    3.0128    1.0962 C   0  0  0  0  0  0  0  0  0  0  0  0
   -0.8062    2.1606    2.2691 C   0  0  0  0  0  0  0  0  0  0  0  0
   -0.1593    0.9882    2.1030 C   0  0  0  0  0  0  0  0  0  0  0  0
    0.3149    0.5559    0.7453 C   0  0  0  0  0  0  0  0  0  0  0  0
    2.1252   -5.6732   -2.3431 C   0  0  0  0  0  0  0  0  0  0  0  0
    3.6569   -4.7420   -4.0090 C   0  0  0  0  0  0  0  0  0  0  0  0
   -1.0021    1.7581    4.7165 C   0  0  0  0  0  0  0  0  0  0  0  0
   -2.0080    3.7972    3.7423 C   0  0  0  0  0  0  0  0  0  0  0  0
  1  2  1  0  0  0  0
  1 10  1  0  0  0  0
  1 16  1  0  0  0  0
  2  4  2  0  0  0  0
  2  9  1  0  0  0  0
  4  6  1  0  0  0  0
  6  7  2  0  0  0  0
  7  8  1  0  0  0  0
  8  9  2  0  0  0  0
 10 11  2  0  0  0  0
 10 15  1  0  0  0  0
 11 12  1  0  0  0  0
 12 13  2  0  0  0  0
 13  3  1  0  0  0  0
 13 14  1  0  0  0  0
 14 15  2  0  0  0  0
 16 17  2  0  0  0  0
 16 21  1  0  0  0  0
 17 18  1  0  0  0  0
 18 19  2  0  0  0  0
 19  5  1  0  0  0  0
 19 20  1  0  0  0  0
 20 21  2  0  0  0  0
 22  3  1  0  0  0  0
 23  3  1  0  0  0  0
 24  5  1  0  0  0  0
 25  5  1  0  0  0  0
M  END
>  <CHROM.1>
59.14558877,17.83104056,9.71081269,-163.94722145,-177.59774063,0.61293631
0.41375472,-1.28271207,0.06671985,1.18821808,-0.89533141

>  <Name>
1q8n_lig

>  <RI>
0

>  <Rbt.Current_Directory>
/home/itssahil/PROJECTS/Mol_Feturizer/New_Systems/rnas/1q8n

>  <Rbt.Executable>
rbdock ($Id: //depot/dev/client3/rdock/2013.1/src/exe/rbdock.cxx#4 $)

>  <Rbt.Library>
libRbt.so (2013.1, Build901 2013/11/27)

>  <Rbt.Parameter_File>
/export/apps/rDock/src/rDock_2013.1_src/data/scripts/dock_solv.prm

>  <Rbt.Receptor>
prm/pocket_docking_2.prm

>  <SCORE>
-52.2628

>  <SCORE.INTER>
-52.7668

>  <SCORE.INTER.CONST>
1

>  <SCORE.INTER.POLAR>
0

>  <SCORE.INTER.ROT>
5

>  <SCORE.INTER.SOLV>
10.5054

>  <SCORE.INTER.VDW>
-45.613

>  <SCORE.INTER.norm>
-2.11067

>  <SCORE.INTRA>
0.361647

>  <SCORE.INTRA.DIHEDRAL>
0.99751

>  <SCORE.INTRA.DIHEDRAL.0>
2.1627

>  <SCORE.INTRA.POLAR>
0

>  <SCORE.INTRA.POLAR.0>
0

>  <SCORE.INTRA.REPUL>
0

>  <SCORE.INTRA.REPUL.0>
0

>  <SCORE.INTRA.SOLV>
0.015588

>  <SCORE.INTRA.SOLV.lig_0>
-5.95779

>  <SCORE.INTRA.VDW>
-0.144902

>  <SCORE.INTRA.VDW.0>
3.81702

>  <SCORE.INTRA.norm>
0.0144659

>  <SCORE.RESTR>
0.142297

>  <SCORE.RESTR.CAVITY>
0.142297

>  <SCORE.RESTR.norm>
0.00569189

>  <SCORE.SYSTEM>
0

>  <SCORE.SYSTEM.CONST>
0

>  <SCORE.SYSTEM.DIHEDRAL>
0

>  <SCORE.SYSTEM.SOLV>
0

>  <SCORE.SYSTEM.norm>
0

>  <SCORE.heavy>
25

>  <SCORE.norm>
-2.09051

>  <RMSD>
0.482

$$$$
1q8n_lig
 OpenBabel11021811403D
libRbt.so/2013.1/901 2013/11/27
 25 27  0  0  0  0  0  0  0  0999 V2000
    0.5435    0.9291   -1.8707 C   0  0  0  0  0  0  0  0  0  0  0  0
    0.5037    2.0383   -3.0680 C   0  0  0  0  0  0  0  0  0  0  0  0
   -1.2787    2.5439    3.5601 N   0  0  0  0  0  0  0  0  0  0  0  0
   -0.1996    1.8761   -4.2143 C   0  0  0  0  0  0  0  0  0  0  0  0
    2.6021   -4.5829   -3.0080 N   0  0  0  0  0  0  0  0  0  0  0  0
   -0.2043    2.9055   -5.2792 C   0  0  0  0  0  0  0  0  0  0  0  0
    0.5073    4.0443   -5.1153 C   0  0  0  0  0  0  0  0  0  0  0  0
    1.2589    4.2405   -3.8977 C   0  0  0  0  0  0  0  0  0  0  0  0
    1.2566    3.3041   -2.9457 C   0  0  0  0  0  0  0  0  0  0  0  0
    0.0428    1.3765   -0.3843 C   0  0  0  0  0  0  0  0  0  0  0  0
   -0.7129    2.4795   -0.2035 C   0  0  0  0  0  0  0  0  0  0  0  0
   -1.1789    2.9030    1.1461 C   0  0  0  0  0  0  0  0  0  0  0  0
   -0.8491    2.1722    2.2445 C   0  0  0  0  0  0  0  0  0  0  0  0
   -0.0251    0.9623    2.0621 C   0  0  0  0  0  0  0  0  0  0  0  0
    0.3875    0.5965    0.8404 C   0  0  0  0  0  0  0  0  0  0  0  0
    1.0761   -0.6189   -2.1330 C   0  0  0  0  0  0  0  0  0  0  0  0
    1.8542   -0.9405   -3.3791 C   0  0  0  0  0  0  0  0  0  0  0  0
    2.3196   -2.1639   -3.6455 C   0  0  0  0  0  0  0  0  0  0  0  0
    2.0889   -3.2769   -2.7172 C   0  0  0  0  0  0  0  0  0  0  0  0
    1.3907   -3.0436   -1.5865 C   0  0  0  0  0  0  0  0  0  0  0  0
    0.8640   -1.6721   -1.2757 C   0  0  0  0  0  0  0  0  0  0  0  0
   -2.0316    3.7353    3.8096 C   0  0  0  0  0  0  0  0  0  0  0  0
   -0.9601    1.7154    4.6813 C   0  0  0  0  0  0  0  0  0  0  0  0
    2.0802   -5.7346   -2.3302 C   0  0  0  0  0  0  0  0  0  0  0  0
    3.6468   -4.7773   -3.9880 C   0  0  0  0  0  0  0  0  0  0  0  0
  1  2  1  0  0  0  0
  1 10  1  0  0  0  0
  1 16  1  0  0  0  0
  2  4  2  0  0  0  0
  2  9  1  0  0  0  0
  4  6  1  0  0  0  0
  6  7  2  0  0  0  0
  7  8  1  0  0  0  0
  8  9  2  0  0  0  0
 10 11  2  0  0  0  0
 10 15  1  0  0  0  0
 11 12  1  0  0  0  0
 12 13  2  0  0  0  0
 13  3  1  0  0  0  0
 13 14  1  0  0  0  0
 14 15  2  0  0  0  0
 16 17  2  0  0  0  0
 16 21  1  0  0  0  0
 17 18  1  0  0  0  0
 18 19  2  0  0  0  0
 19  5  1  0  0  0  0
 19 20  1  0  0  0  0
 20 21  2  0  0  0  0
 22  3  1  0  0  0  0
 23  3  1  0  0  0  0
 24  5  1  0  0  0  0
 25  5  1  0  0  0  0
M  END
>  <CHROM.1>
-121.43769163,17.81037220,15.45323734,-2.73820373,-162.31992933,0.60216103
0.39167801,-1.25472945,3.11802391,-1.19027874,2.27452244

>  <Name>
1q8n_lig

>  <RI>
0

>  <Rbt.Current_Directory>
/home/itssahil/PROJECTS/Mol_Feturizer/New_Systems/rnas/1q8n

>  <Rbt.Executable>
rbdock ($Id: //depot/dev/client3/rdock/2013.1/src/exe/rbdock.cxx#4 $)

>  <Rbt.Library>
libRbt.so (2013.1, Build901 2013/11/27)

>  <Rbt.Parameter_File>
/export/apps/rDock/src/rDock_2013.1_src/data/scripts/dock_solv.prm

>  <Rbt.Receptor>
prm/pocket_docking_2.prm

>  <SCORE>
-51.4215

>  <SCORE.INTER>
-51.953

>  <SCORE.INTER.CONST>
1

>  <SCORE.INTER.POLAR>
0

>  <SCORE.INTER.ROT>
5

>  <SCORE.INTER.SOLV>
10.6344

>  <SCORE.INTER.VDW>
-45.1134

>  <SCORE.INTER.norm>
-2.07812

>  <SCORE.INTRA>
0.321822

>  <SCORE.INTRA.DIHEDRAL>
1.20416

>  <SCORE.INTRA.DIHEDRAL.0>
2.1627

>  <SCORE.INTRA.POLAR>
0

>  <SCORE.INTRA.POLAR.0>
0

>  <SCORE.INTRA.REPUL>
0

>  <SCORE.INTRA.REPUL.0>
0

>  <SCORE.INTRA.SOLV>
0.0130785

>  <SCORE.INTRA.SOLV.lig_0>
-5.95779

>  <SCORE.INTRA.VDW>
-0.286796

>  <SCORE.INTRA.VDW.0>
3.81702

>  <SCORE.INTRA.norm>
0.0128729

>  <SCORE.RESTR>
0.20961

>  <SCORE.RESTR.CAVITY>
0.20961

>  <SCORE.RESTR.norm>
0.0083844

>  <SCORE.SYSTEM>
0

>  <SCORE.SYSTEM.CONST>
0

>  <SCORE.SYSTEM.DIHEDRAL>
0

>  <SCORE.SYSTEM.SOLV>
0

>  <SCORE.SYSTEM.norm>
0

>  <SCORE.heavy>
25

>  <SCORE.norm>
-2.05686

>  <RMSD>
0.482

$$$$
1q8n_lig
 OpenBabel11021811403D
libRbt.so/2013.1/901 2013/11/27
 25 27  0  0  0  0  0  0  0  0999 V2000
    0.6290    0.9641   -1.8821 C   0  0  0  0  0  0  0  0  0  0  0  0
    0.5862    2.0503   -3.1003 C   0  0  0  0  0  0  0  0  0  0  0  0
    2.6287   -4.5214   -3.0362 N   0  0  0  0  0  0  0  0  0  0  0  0
    1.2483    3.2317   -3.0719 C   0  0  0  0  0  0  0  0  0  0  0  0
   -1.3007    2.5531    3.5643 N   0  0  0  0  0  0  0  0  0  0  0  0
    1.1783    4.1926   -4.1969 C   0  0  0  0  0  0  0  0  0  0  0  0
    0.4380    3.8947   -5.2892 C   0  0  0  0  0  0  0  0  0  0  0  0
   -0.2706    2.6374   -5.3429 C   0  0  0  0  0  0  0  0  0  0  0  0
   -0.2010    1.7802   -4.3214 C   0  0  0  0  0  0  0  0  0  0  0  0
    1.1780   -0.5377   -2.2035 C   0  0  0  0  0  0  0  0  0  0  0  0
    1.8889   -0.7984   -3.3203 C   0  0  0  0  0  0  0  0  0  0  0  0
    2.3979   -2.1633   -3.6298 C   0  0  0  0  0  0  0  0  0  0  0  0
    2.1551   -3.1940   -2.7766 C   0  0  0  0  0  0  0  0  0  0  0  0
    1.3811   -2.9238   -1.5503 C   0  0  0  0  0  0  0  0  0  0  0  0
    0.9288   -1.6896   -1.2880 C   0  0  0  0  0  0  0  0  0  0  0  0
    0.1315    1.3525   -0.3491 C   0  0  0  0  0  0  0  0  0  0  0  0
   -0.6166    2.6347   -0.1084 C   0  0  0  0  0  0  0  0  0  0  0  0
   -1.0531    3.0015    1.0996 C   0  0  0  0  0  0  0  0  0  0  0  0
   -0.8185    2.1548    2.2751 C   0  0  0  0  0  0  0  0  0  0  0  0
   -0.1463    0.9959    2.1152 C   0  0  0  0  0  0  0  0  0  0  0  0
    0.3478    0.5725    0.7619 C   0  0  0  0  0  0  0  0  0  0  0  0
    3.6255   -4.7969   -4.0257 C   0  0  0  0  0  0  0  0  0  0  0  0
    2.1069   -5.6284   -2.2963 C   0  0  0  0  0  0  0  0  0  0  0  0
   -2.0603    3.7611    3.7130 C   0  0  0  0  0  0  0  0  0  0  0  0
   -1.0437    1.7541    4.7412 C   0  0  0  0  0  0  0  0  0  0  0  0
  1  2  1  0  0  0  0
  1 10  1  0  0  0  0
  1 16  1  0  0  0  0
  2  4  2  0  0  0  0
  2  9  1  0  0  0  0
  4  6  1  0  0  0  0
  6  7  2  0  0  0  0
  7  8  1  0  0  0  0
  8  9  2  0  0  0  0
 10 11  2  0  0  0  0
 10 15  1  0  0  0  0
 11 12  1  0  0  0  0
 12 13  2  0  0  0  0
 13  3  1  0  0  0  0
 13 14  1  0  0  0  0
 14 15  2  0  0  0  0
 16 17  2  0  0  0  0
 16 21  1  0  0  0  0
 17 18  1  0  0  0  0
 18 19  2  0  0  0  0
 19  5  1  0  0  0  0
 19 20  1  0  0  0  0
 20 21  2  0  0  0  0
 22  3  1  0  0  0  0
 23  3  1  0  0  0  0
 24  5  1  0  0  0  0
 25  5  1  0  0  0  0
M  END
>  <CHROM.1>
-121.25253422,16.68626714,11.76261583,14.46032242,2.24084236,0.61442631,0.40287568
-1.28710547,0.08428434,1.18519705,-0.90010438

>  <Name>
1q8n_lig

>  <RI>
0

>  <Rbt.Current_Directory>
/home/itssahil/PROJECTS/Mol_Feturizer/New_Systems/rnas/1q8n

>  <Rbt.Executable>
rbdock ($Id: //depot/dev/client3/rdock/2013.1/src/exe/rbdock.cxx#4 $)

>  <Rbt.Library>
libRbt.so (2013.1, Build901 2013/11/27)

>  <Rbt.Parameter_File>
/export/apps/rDock/src/rDock_2013.1_src/data/scripts/dock_solv.prm

>  <Rbt.Receptor>
prm/pocket_docking_2.prm

>  <SCORE>
-53.0149

>  <SCORE.INTER>
-53.4067

>  <SCORE.INTER.CONST>
1

>  <SCORE.INTER.POLAR>
0

>  <SCORE.INTER.ROT>
5

>  <SCORE.INTER.SOLV>
10.3753

>  <SCORE.INTER.VDW>
-45.9962

>  <SCORE.INTER.norm>
-2.13627

>  <SCORE.INTRA>
0.278734

>  <SCORE.INTRA.DIHEDRAL>
0.813857

>  <SCORE.INTRA.DIHEDRAL.0>
2.1627

>  <SCORE.INTRA.POLAR>
0

>  <SCORE.INTRA.POLAR.0>
0

>  <SCORE.INTRA.REPUL>
0

>  <SCORE.INTRA.REPUL.0>
0

>  <SCORE.INTRA.SOLV>
0.0158413

>  <SCORE.INTRA.SOLV.lig_0>
-5.95779

>  <SCORE.INTRA.VDW>
-0.136115

>  <SCORE.INTRA.VDW.0>
3.81702

>  <SCORE.INTRA.norm>
0.0111493

>  <SCORE.RESTR>
0.113045

>  <SCORE.RESTR.CAVITY>
0.113045

>  <SCORE.RESTR.norm>
0.00452181

>  <SCORE.SYSTEM>
0

>  <SCORE.SYSTEM.CONST>
0

>  <SCORE.SYSTEM.DIHEDRAL>
0

>  <SCORE.SYSTEM.SOLV>
0

>  <SCORE.SYSTEM.norm>
0

>  <SCORE.heavy>
25

>  <SCORE.norm>
-2.1206

>  <RMSD>
0.483

$$$$
1q8n_lig
 OpenBabel11021811403D
libRbt.so/2013.1/901 2013/11/27
 25 27  0  0  0  0  0  0  0  0999 V2000
    0.5136    1.1183   -1.8834 C   0  0  0  0  0  0  0  0  0  0  0  0
    0.4770    2.1777   -3.1251 C   0  0  0  0  0  0  0  0  0  0  0  0
    2.5759   -4.3725   -2.8933 N   0  0  0  0  0  0  0  0  0  0  0  0
   -0.2208    1.9673   -4.2669 C   0  0  0  0  0  0  0  0  0  0  0  0
   -1.2284    2.4444    3.6951 N   0  0  0  0  0  0  0  0  0  0  0  0
   -0.2228    2.9524   -5.3729 C   0  0  0  0  0  0  0  0  0  0  0  0
    0.4859    4.0984   -5.2526 C   0  0  0  0  0  0  0  0  0  0  0  0
    1.2316    4.3457   -4.0408 C   0  0  0  0  0  0  0  0  0  0  0  0
    1.2270    3.4489   -3.0514 C   0  0  0  0  0  0  0  0  0  0  0  0
    1.0798   -0.3851   -2.1653 C   0  0  0  0  0  0  0  0  0  0  0  0
    1.8011   -0.6649   -3.2706 C   0  0  0  0  0  0  0  0  0  0  0  0
    2.3259   -2.0315   -3.5442 C   0  0  0  0  0  0  0  0  0  0  0  0
    2.0873   -3.0442   -2.6685 C   0  0  0  0  0  0  0  0  0  0  0  0
    1.3018   -2.7529   -1.4543 C   0  0  0  0  0  0  0  0  0  0  0  0
    0.8354   -1.5175   -1.2244 C   0  0  0  0  0  0  0  0  0  0  0  0
   -0.0070    1.5351   -0.3655 C   0  0  0  0  0  0  0  0  0  0  0  0
    0.3148    0.6473    0.8050 C   0  0  0  0  0  0  0  0  0  0  0  0
   -0.0663    0.9304    2.0536 C   0  0  0  0  0  0  0  0  0  0  0  0
   -0.8342    2.1453    2.3503 C   0  0  0  0  0  0  0  0  0  0  0  0
   -1.1548    2.9735    1.3346 C   0  0  0  0  0  0  0  0  0  0  0  0
   -0.7305    2.6665   -0.0728 C   0  0  0  0  0  0  0  0  0  0  0  0
    3.5411   -4.6699   -3.9074 C   0  0  0  0  0  0  0  0  0  0  0  0
    2.1019   -5.4580   -2.0919 C   0  0  0  0  0  0  0  0  0  0  0  0
   -0.8868    1.5530    4.7662 C   0  0  0  0  0  0  0  0  0  0  0  0
   -1.9697    3.6446    4.0103 C   0  0  0  0  0  0  0  0  0  0  0  0
  1  2  1  0  0  0  0
  1 10  1  0  0  0  0
  1 16  1  0  0  0  0
  2  4  2  0  0  0  0
  2  9  1  0  0  0  0
  4  6  1  0  0  0  0
  6  7  2  0  0  0  0
  7  8  1  0  0  0  0
  8  9  2  0  0  0  0
 10 11  2  0  0  0  0
 10 15  1  0  0  0  0
 11 12  1  0  0  0  0
 12 13  2  0  0  0  0
 13  3  1  0  0  0  0
 13 14  1  0  0  0  0
 14 15  2  0  0  0  0
 16 17  2  0  0  0  0
 16 21  1  0  0  0  0
 17 18  1  0  0  0  0
 18 19  2  0  0  0  0
 19  5  1  0  0  0  0
 19 20  1  0  0  0  0
 20 21  2  0  0  0  0
 22  3  1  0  0  0  0
 23  3  1  0  0  0  0
 24  5  1  0  0  0  0
 25  5  1  0  0  0  0
M  END
>  <CHROM.1>
59.56839520,16.32882011,-166.75041446,11.76440130,-0.54054516,0.58680879
0.49852287,-1.20872955,0.10223222,1.18771024,-0.89161574

>  <Name>
1q8n_lig

>  <RI>
0

>  <Rbt.Current_Directory>
/home/itssahil/PROJECTS/Mol_Feturizer/New_Systems/rnas/1q8n

>  <Rbt.Executable>
rbdock ($Id: //depot/dev/client3/rdock/2013.1/src/exe/rbdock.cxx#4 $)

>  <Rbt.Library>
libRbt.so (2013.1, Build901 2013/11/27)

>  <Rbt.Parameter_File>
/export/apps/rDock/src/rDock_2013.1_src/data/scripts/dock_solv.prm

>  <Rbt.Receptor>
prm/pocket_docking_4.prm

>  <SCORE>
-53.9092

>  <SCORE.INTER>
-54.3003

>  <SCORE.INTER.CONST>
1

>  <SCORE.INTER.POLAR>
0

>  <SCORE.INTER.ROT>
5

>  <SCORE.INTER.SOLV>
10.5012

>  <SCORE.INTER.VDW>
-46.6339

>  <SCORE.INTER.norm>
-2.17201

>  <SCORE.INTRA>
0.391107

>  <SCORE.INTRA.DIHEDRAL>
0.531332

>  <SCORE.INTRA.DIHEDRAL.0>
2.1627

>  <SCORE.INTRA.POLAR>
0

>  <SCORE.INTRA.POLAR.0>
0

>  <SCORE.INTRA.REPUL>
0

>  <SCORE.INTRA.REPUL.0>
0

>  <SCORE.INTRA.SOLV>
0.0215804

>  <SCORE.INTRA.SOLV.lig_0>
-5.95779

>  <SCORE.INTRA.VDW>
0.11465

>  <SCORE.INTRA.VDW.0>
3.81702

>  <SCORE.INTRA.norm>
0.0156443

>  <SCORE.RESTR>
0

>  <SCORE.RESTR.CAVITY>
0

>  <SCORE.RESTR.norm>
0

>  <SCORE.SYSTEM>
0

>  <SCORE.SYSTEM.CONST>
0

>  <SCORE.SYSTEM.DIHEDRAL>
0

>  <SCORE.SYSTEM.SOLV>
0

>  <SCORE.SYSTEM.norm>
0

>  <SCORE.heavy>
25

>  <SCORE.norm>
-2.15637

>  <RMSD>
0.484

$$$$
1q8n_lig
 OpenBabel11021811413D
libRbt.so/2013.1/901 2013/11/27
 25 27  0  0  0  0  0  0  0  0999 V2000
    0.5257    1.1115   -1.8926 C   0  0  0  0  0  0  0  0  0  0  0  0
    0.4894    2.1687   -3.1362 C   0  0  0  0  0  0  0  0  0  0  0  0
    2.5821   -4.3831   -2.8938 N   0  0  0  0  0  0  0  0  0  0  0  0
   -0.1865    1.9444   -4.2884 C   0  0  0  0  0  0  0  0  0  0  0  0
   -1.2174    2.4450    3.6838 N   0  0  0  0  0  0  0  0  0  0  0  0
   -0.1890    2.9282   -5.3958 C   0  0  0  0  0  0  0  0  0  0  0  0
    0.4969    4.0869   -5.2660 C   0  0  0  0  0  0  0  0  0  0  0  0
    1.2190    4.3491   -4.0430 C   0  0  0  0  0  0  0  0  0  0  0  0
    1.2151    3.4534   -3.0525 C   0  0  0  0  0  0  0  0  0  0  0  0
    1.0903   -0.3929   -2.1721 C   0  0  0  0  0  0  0  0  0  0  0  0
    1.8258   -0.6714   -3.2684 C   0  0  0  0  0  0  0  0  0  0  0  0
    2.3494   -2.0389   -3.5397 C   0  0  0  0  0  0  0  0  0  0  0  0
    2.0952   -3.0538   -2.6709 C   0  0  0  0  0  0  0  0  0  0  0  0
    1.2942   -2.7639   -1.4666 C   0  0  0  0  0  0  0  0  0  0  0  0
    0.8291   -1.5277   -1.2387 C   0  0  0  0  0  0  0  0  0  0  0  0
    0.0063    1.5315   -0.3752 C   0  0  0  0  0  0  0  0  0  0  0  0
    0.2971    0.6278    0.7911 C   0  0  0  0  0  0  0  0  0  0  0  0
   -0.0846    0.9122    2.0392 C   0  0  0  0  0  0  0  0  0  0  0  0
   -0.8223    2.1448    2.3395 C   0  0  0  0  0  0  0  0  0  0  0  0
   -1.1146    2.9880    1.3275 C   0  0  0  0  0  0  0  0  0  0  0  0
   -0.6893    2.6795   -0.0792 C   0  0  0  0  0  0  0  0  0  0  0  0
    2.1056   -5.5065   -2.1458 C   0  0  0  0  0  0  0  0  0  0  0  0
    3.5773   -4.6263   -3.8915 C   0  0  0  0  0  0  0  0  0  0  0  0
   -1.9656    3.6349    3.9712 C   0  0  0  0  0  0  0  0  0  0  0  0
   -0.8823    1.5630    4.7789 C   0  0  0  0  0  0  0  0  0  0  0  0
  1  2  1  0  0  0  0
  1 10  1  0  0  0  0
  1 16  1  0  0  0  0
  2  4  2  0  0  0  0
  2  9  1  0  0  0  0
  4  6  1  0  0  0  0
  6  7  2  0  0  0  0
  7  8  1  0  0  0  0
  8  9  2  0  0  0  0
 10 11  2  0  0  0  0
 10 15  1  0  0  0  0
 11 12  1  0  0  0  0
 12 13  2  0  0  0  0
 13  3  1  0  0  0  0
 13 14  1  0  0  0  0
 14 15  2  0  0  0  0
 16 17  2  0  0  0  0
 16 21  1  0  0  0  0
 17 18  1  0  0  0  0
 18 19  2  0  0  0  0
 19  5  1  0  0  0  0
 19 20  1  0  0  0  0
 20 21  2  0  0  0  0
 22  3  1  0  0  0  0
 23  3  1  0  0  0  0
 24  5  1  0  0  0  0
 25  5  1  0  0  0  0
M  END
>  <CHROM.1>
58.13780569,17.21295446,-168.32944724,-167.08440760,-178.54712046,0.59754792
0.49272856,-1.21885822,0.09771069,1.18795947,-0.88813929

>  <Name>
1q8n_lig

>  <RI>
0

>  <Rbt.Current_Directory>
/home/itssahil/PROJECTS/Mol_Feturizer/New_Systems/rnas/1q8n

>  <Rbt.Executable>
rbdock ($Id: //depot/dev/client3/rdock/2013.1/src/exe/rbdock.cxx#4 $)

>  <Rbt.Library>
libRbt.so (2013.1, Build901 2013/11/27)

>  <Rbt.Parameter_File>
/export/apps/rDock/src/rDock_2013.1_src/data/scripts/dock_solv.prm

>  <Rbt.Receptor>
prm/pocket_docking_7.prm

>  <SCORE>
-53.772

>  <SCORE.INTER>
-54.2591

>  <SCORE.INTER.CONST>
1

>  <SCORE.INTER.POLAR>
0

>  <SCORE.INTER.ROT>
5

>  <SCORE.INTER.SOLV>
10.4412

>  <SCORE.INTER.VDW>
-46.5865

>  <SCORE.INTER.norm>
-2.17037

>  <SCORE.INTRA>
0.48715

>  <SCORE.INTRA.DIHEDRAL>
0.64556

>  <SCORE.INTRA.DIHEDRAL.0>
2.1627

>  <SCORE.INTRA.POLAR>
0

>  <SCORE.INTRA.POLAR.0>
0

>  <SCORE.INTRA.REPUL>
0

>  <SCORE.INTRA.REPUL.0>
0

>  <SCORE.INTRA.SOLV>
0.0232787

>  <SCORE.INTRA.SOLV.lig_0>
-5.95779

>  <SCORE.INTRA.VDW>
0.152731

>  <SCORE.INTRA.VDW.0>
3.81702

>  <SCORE.INTRA.norm>
0.019486

>  <SCORE.RESTR>
0

>  <SCORE.RESTR.CAVITY>
0

>  <SCORE.RESTR.norm>
0

>  <SCORE.SYSTEM>
0

>  <SCORE.SYSTEM.CONST>
0

>  <SCORE.SYSTEM.DIHEDRAL>
0

>  <SCORE.SYSTEM.SOLV>
0

>  <SCORE.SYSTEM.norm>
0

>  <SCORE.heavy>
25

>  <SCORE.norm>
-2.15088

>  <RMSD>
0.485

$$$$
1q8n_lig
 OpenBabel11021811403D
libRbt.so/2013.1/901 2013/11/27
 25 27  0  0  0  0  0  0  0  0999 V2000
    0.5929    0.9306   -1.8871 C   0  0  0  0  0  0  0  0  0  0  0  0
    0.5323    2.0001   -3.1192 C   0  0  0  0  0  0  0  0  0  0  0  0
    2.6292   -4.5455   -3.0220 N   0  0  0  0  0  0  0  0  0  0  0  0
   -0.1516    1.7796   -4.2675 C   0  0  0  0  0  0  0  0  0  0  0  0
   -1.2819    2.5938    3.5564 N   0  0  0  0  0  0  0  0  0  0  0  0
   -0.1762    2.7746   -5.3644 C   0  0  0  0  0  0  0  0  0  0  0  0
    0.4969    3.9402   -5.2288 C   0  0  0  0  0  0  0  0  0  0  0  0
    1.2272    4.1984   -4.0097 C   0  0  0  0  0  0  0  0  0  0  0  0
    1.2432    3.2925   -3.0288 C   0  0  0  0  0  0  0  0  0  0  0  0
    1.1498   -0.5716   -2.1931 C   0  0  0  0  0  0  0  0  0  0  0  0
    0.8770   -1.6008   -1.3644 C   0  0  0  0  0  0  0  0  0  0  0  0
    1.3770   -2.9786   -1.6279 C   0  0  0  0  0  0  0  0  0  0  0  0
    2.1305   -3.2339   -2.7308 C   0  0  0  0  0  0  0  0  0  0  0  0
    2.4351   -2.1189   -3.6473 C   0  0  0  0  0  0  0  0  0  0  0  0
    1.9786   -0.8844   -3.3941 C   0  0  0  0  0  0  0  0  0  0  0  0
    0.1053    1.3360   -0.3553 C   0  0  0  0  0  0  0  0  0  0  0  0
   -0.5289    2.6761   -0.1029 C   0  0  0  0  0  0  0  0  0  0  0  0
   -0.9519    3.0600    1.1046 C   0  0  0  0  0  0  0  0  0  0  0  0
   -0.8148    2.1757    2.2678 C   0  0  0  0  0  0  0  0  0  0  0  0
   -0.2466    0.9639    2.0972 C   0  0  0  0  0  0  0  0  0  0  0  0
    0.2313    0.5209    0.7443 C   0  0  0  0  0  0  0  0  0  0  0  0
    2.1351   -5.7147   -2.3607 C   0  0  0  0  0  0  0  0  0  0  0  0
    3.6548   -4.7233   -4.0027 C   0  0  0  0  0  0  0  0  0  0  0  0
   -2.0444    3.8012    3.6947 C   0  0  0  0  0  0  0  0  0  0  0  0
   -1.0066    1.8156    4.7430 C   0  0  0  0  0  0  0  0  0  0  0  0
  1  2  1  0  0  0  0
  1 10  1  0  0  0  0
  1 16  1  0  0  0  0
  2  4  2  0  0  0  0
  2  9  1  0  0  0  0
  4  6  1  0  0  0  0
  6  7  2  0  0  0  0
  7  8  1  0  0  0  0
  8  9  2  0  0  0  0
 10 11  2  0  0  0  0
 10 15  1  0  0  0  0
 11 12  1  0  0  0  0
 12 13  2  0  0  0  0
 13  3  1  0  0  0  0
 13 14  1  0  0  0  0
 14 15  2  0  0  0  0
 16 17  2  0  0  0  0
 16 21  1  0  0  0  0
 17 18  1  0  0  0  0
 18 19  2  0  0  0  0
 19  5  1  0  0  0  0
 19 20  1  0  0  0  0
 20 21  2  0  0  0  0
 22  3  1  0  0  0  0
 23  3  1  0  0  0  0
 24  5  1  0  0  0  0
 25  5  1  0  0  0  0
M  END
>  <CHROM.1>
57.14001508,-160.53502337,5.75196543,14.33295873,8.21758605,0.62557212,0.41209091
-1.28671712,0.04598663,1.18810204,-0.87213513

>  <Name>
1q8n_lig

>  <RI>
0

>  <Rbt.Current_Directory>
/home/itssahil/PROJECTS/Mol_Feturizer/New_Systems/rnas/1q8n

>  <Rbt.Executable>
rbdock ($Id: //depot/dev/client3/rdock/2013.1/src/exe/rbdock.cxx#4 $)

>  <Rbt.Library>
libRbt.so (2013.1, Build901 2013/11/27)

>  <Rbt.Parameter_File>
/export/apps/rDock/src/rDock_2013.1_src/data/scripts/dock_solv.prm

>  <Rbt.Receptor>
prm/pocket_docking_2.prm

>  <SCORE>
-51.8871

>  <SCORE.INTER>
-52.3887

>  <SCORE.INTER.CONST>
1

>  <SCORE.INTER.POLAR>
0

>  <SCORE.INTER.ROT>
5

>  <SCORE.INTER.SOLV>
10.5236

>  <SCORE.INTER.VDW>
-45.367

>  <SCORE.INTER.norm>
-2.09555

>  <SCORE.INTRA>
0.375097

>  <SCORE.INTRA.DIHEDRAL>
1.0436

>  <SCORE.INTRA.DIHEDRAL.0>
2.1627

>  <SCORE.INTRA.POLAR>
0

>  <SCORE.INTRA.POLAR.0>
0

>  <SCORE.INTRA.REPUL>
0

>  <SCORE.INTRA.REPUL.0>
0

>  <SCORE.INTRA.SOLV>
0.0184538

>  <SCORE.INTRA.SOLV.lig_0>
-5.95779

>  <SCORE.INTRA.VDW>
-0.155931

>  <SCORE.INTRA.VDW.0>
3.81702

>  <SCORE.INTRA.norm>
0.0150039

>  <SCORE.RESTR>
0.126464

>  <SCORE.RESTR.CAVITY>
0.126464

>  <SCORE.RESTR.norm>
0.00505856

>  <SCORE.SYSTEM>
0

>  <SCORE.SYSTEM.CONST>
0

>  <SCORE.SYSTEM.DIHEDRAL>
0

>  <SCORE.SYSTEM.SOLV>
0

>  <SCORE.SYSTEM.norm>
0

>  <SCORE.heavy>
25

>  <SCORE.norm>
-2.07548

>  <RMSD>
0.486

$$$$
1q8n_lig
 OpenBabel11021811403D
libRbt.so/2013.1/901 2013/11/27
 25 27  0  0  0  0  0  0  0  0999 V2000
    0.5579    0.9160   -1.8629 C   0  0  0  0  0  0  0  0  0  0  0  0
    0.5179    2.0306   -3.0551 C   0  0  0  0  0  0  0  0  0  0  0  0
   -1.2885    2.5372    3.5578 N   0  0  0  0  0  0  0  0  0  0  0  0
   -0.1744    1.8675   -4.2079 C   0  0  0  0  0  0  0  0  0  0  0  0
    2.6356   -4.5847   -3.0200 N   0  0  0  0  0  0  0  0  0  0  0  0
   -0.1798    2.9021   -5.2679 C   0  0  0  0  0  0  0  0  0  0  0  0
    0.5200    4.0464   -5.0928 C   0  0  0  0  0  0  0  0  0  0  0  0
    1.2597    4.2436   -3.8680 C   0  0  0  0  0  0  0  0  0  0  0  0
    1.2582    3.3026   -2.9206 C   0  0  0  0  0  0  0  0  0  0  0  0
    0.0525    1.3552   -0.3756 C   0  0  0  0  0  0  0  0  0  0  0  0
    0.2452    0.5546    0.6932 C   0  0  0  0  0  0  0  0  0  0  0  0
   -0.2095    0.9393    2.0582 C   0  0  0  0  0  0  0  0  0  0  0  0
   -0.8374    2.1285    2.2605 C   0  0  0  0  0  0  0  0  0  0  0  0
   -1.0531    3.0154    1.1016 C   0  0  0  0  0  0  0  0  0  0  0  0
   -0.6391    2.6528   -0.1205 C   0  0  0  0  0  0  0  0  0  0  0  0
    1.0956   -0.6293   -2.1310 C   0  0  0  0  0  0  0  0  0  0  0  0
    1.8822   -0.9418   -3.3741 C   0  0  0  0  0  0  0  0  0  0  0  0
    2.3519   -2.1626   -3.6448 C   0  0  0  0  0  0  0  0  0  0  0  0
    2.1177   -3.2817   -2.7246 C   0  0  0  0  0  0  0  0  0  0  0  0
    1.4119   -3.0565   -1.5970 C   0  0  0  0  0  0  0  0  0  0  0  0
    0.8803   -1.6881   -1.2814 C   0  0  0  0  0  0  0  0  0  0  0  0
   -1.0521    1.7522    4.7310 C   0  0  0  0  0  0  0  0  0  0  0  0
   -2.0010    3.7669    3.7168 C   0  0  0  0  0  0  0  0  0  0  0  0
    3.7032   -4.7437   -3.9651 C   0  0  0  0  0  0  0  0  0  0  0  0
    2.1067   -5.7659   -2.3760 C   0  0  0  0  0  0  0  0  0  0  0  0
  1  2  1  0  0  0  0
  1 10  1  0  0  0  0
  1 16  1  0  0  0  0
  2  4  2  0  0  0  0
  2  9  1  0  0  0  0
  4  6  1  0  0  0  0
  6  7  2  0  0  0  0
  7  8  1  0  0  0  0
  8  9  2  0  0  0  0
 10 11  2  0  0  0  0
 10 15  1  0  0  0  0
 11 12  1  0  0  0  0
 12 13  2  0  0  0  0
 13  3  1  0  0  0  0
 13 14  1  0  0  0  0
 14 15  2  0  0  0  0
 16 17  2  0  0  0  0
 16 21  1  0  0  0  0
 17 18  1  0  0  0  0
 18 19  2  0  0  0  0
 19  5  1  0  0  0  0
 19 20  1  0  0  0  0
 20 21  2  0  0  0  0
 22  3  1  0  0  0  0
 23  3  1  0  0  0  0
 24  5  1  0  0  0  0
 25  5  1  0  0  0  0
M  END
>  <CHROM.1>
-121.93292971,-169.91795987,15.69824154,3.03218326,19.03458913,0.60914536
0.39805312,-1.25798014,-3.14069291,-1.18687362,2.29323610

>  <Name>
1q8n_lig

>  <RI>
0

>  <Rbt.Current_Directory>
/home/itssahil/PROJECTS/Mol_Feturizer/New_Systems/rnas/1q8n

>  <Rbt.Executable>
rbdock ($Id: //depot/dev/client3/rdock/2013.1/src/exe/rbdock.cxx#4 $)

>  <Rbt.Library>
libRbt.so (2013.1, Build901 2013/11/27)

>  <Rbt.Parameter_File>
/export/apps/rDock/src/rDock_2013.1_src/data/scripts/dock_solv.prm

>  <Rbt.Receptor>
prm/pocket_docking_2.prm

>  <SCORE>
-51.5779

>  <SCORE.INTER>
-52.1456

>  <SCORE.INTER.CONST>
1

>  <SCORE.INTER.POLAR>
0

>  <SCORE.INTER.ROT>
5

>  <SCORE.INTER.SOLV>
10.5477

>  <SCORE.INTER.VDW>
-45.213

>  <SCORE.INTER.norm>
-2.08583

>  <SCORE.INTRA>
0.450974

>  <SCORE.INTRA.DIHEDRAL>
1.39297

>  <SCORE.INTRA.DIHEDRAL.0>
2.1627

>  <SCORE.INTRA.POLAR>
0

>  <SCORE.INTRA.POLAR.0>
0

>  <SCORE.INTRA.REPUL>
0

>  <SCORE.INTRA.REPUL.0>
0

>  <SCORE.INTRA.SOLV>
0.0179695

>  <SCORE.INTRA.SOLV.lig_0>
-5.95779

>  <SCORE.INTRA.VDW>
-0.254495

>  <SCORE.INTRA.VDW.0>
3.81702

>  <SCORE.INTRA.norm>
0.018039

>  <SCORE.RESTR>
0.116793

>  <SCORE.RESTR.CAVITY>
0.116793

>  <SCORE.RESTR.norm>
0.00467174

>  <SCORE.SYSTEM>
0

>  <SCORE.SYSTEM.CONST>
0

>  <SCORE.SYSTEM.DIHEDRAL>
0

>  <SCORE.SYSTEM.SOLV>
0

>  <SCORE.SYSTEM.norm>
0

>  <SCORE.heavy>
25

>  <SCORE.norm>
-2.06311

>  <RMSD>
0.488

$$$$
1q8n_lig
 OpenBabel11021811403D
libRbt.so/2013.1/901 2013/11/27
 25 27  0  0  0  0  0  0  0  0999 V2000
    0.6567    0.9503   -1.8541 C   0  0  0  0  0  0  0  0  0  0  0  0
    0.6228    2.0939   -3.0188 C   0  0  0  0  0  0  0  0  0  0  0  0
   -1.2075    2.4412    3.5978 N   0  0  0  0  0  0  0  0  0  0  0  0
    1.2890    3.2701   -2.9311 C   0  0  0  0  0  0  0  0  0  0  0  0
    2.4688   -4.6903   -2.7559 N   0  0  0  0  0  0  0  0  0  0  0  0
    1.2271    4.2842   -4.0089 C   0  0  0  0  0  0  0  0  0  0  0  0
    0.4902    4.0419   -5.1172 C   0  0  0  0  0  0  0  0  0  0  0  0
   -0.2226    2.7912   -5.2341 C   0  0  0  0  0  0  0  0  0  0  0  0
   -0.1603    1.8857   -4.2546 C   0  0  0  0  0  0  0  0  0  0  0  0
    0.1467    1.3538   -0.3584 C   0  0  0  0  0  0  0  0  0  0  0  0
    0.3927    0.5578    0.7029 C   0  0  0  0  0  0  0  0  0  0  0  0
   -0.0653    0.9102    2.0754 C   0  0  0  0  0  0  0  0  0  0  0  0
   -0.7511    2.0642    2.2928 C   0  0  0  0  0  0  0  0  0  0  0  0
   -1.0256    2.9458    1.1424 C   0  0  0  0  0  0  0  0  0  0  0  0
   -0.6077    2.6125   -0.0868 C   0  0  0  0  0  0  0  0  0  0  0  0
    1.1926   -0.5889   -2.1582 C   0  0  0  0  0  0  0  0  0  0  0  0
    0.9629   -1.6745   -1.1431 C   0  0  0  0  0  0  0  0  0  0  0  0
    1.3606   -2.9358   -1.3307 C   0  0  0  0  0  0  0  0  0  0  0  0
    2.0563   -3.3319   -2.5607 C   0  0  0  0  0  0  0  0  0  0  0  0
    2.2932   -2.3946   -3.5018 C   0  0  0  0  0  0  0  0  0  0  0  0
    1.8494   -0.9739   -3.3026 C   0  0  0  0  0  0  0  0  0  0  0  0
   -0.9352    1.6513    4.7599 C   0  0  0  0  0  0  0  0  0  0  0  0
   -1.9621    3.6428    3.7762 C   0  0  0  0  0  0  0  0  0  0  0  0
    1.9127   -5.7398   -1.9512 C   0  0  0  0  0  0  0  0  0  0  0  0
    3.4438   -5.0408   -3.7639 C   0  0  0  0  0  0  0  0  0  0  0  0
  1  2  1  0  0  0  0
  1 10  1  0  0  0  0
  1 16  1  0  0  0  0
  2  4  2  0  0  0  0
  2  9  1  0  0  0  0
  4  6  1  0  0  0  0
  6  7  2  0  0  0  0
  7  8  1  0  0  0  0
  8  9  2  0  0  0  0
 10 11  2  0  0  0  0
 10 15  1  0  0  0  0
 11 12  1  0  0  0  0
 12 13  2  0  0  0  0
 13  3  1  0  0  0  0
 13 14  1  0  0  0  0
 14 15  2  0  0  0  0
 16 17  2  0  0  0  0
 16 21  1  0  0  0  0
 17 18  1  0  0  0  0
 18 19  2  0  0  0  0
 19  5  1  0  0  0  0
 19 20  1  0  0  0  0
 20 21  2  0  0  0  0
 22  3  1  0  0  0  0
 23  3  1  0  0  0  0
 24  5  1  0  0  0  0
 25  5  1  0  0  0  0
M  END
>  <CHROM.1>
58.62497881,-166.58193278,-168.25534671,2.02822507,16.75819484,0.61659484
0.35387816,-1.18319921,-3.12475940,-1.20258382,2.28463564

>  <Name>
1q8n_lig

>  <RI>
0

>  <Rbt.Current_Directory>
/home/itssahil/PROJECTS/Mol_Feturizer/New_Systems/rnas/1q8n

>  <Rbt.Executable>
rbdock ($Id: //depot/dev/client3/rdock/2013.1/src/exe/rbdock.cxx#4 $)

>  <Rbt.Library>
libRbt.so (2013.1, Build901 2013/11/27)

>  <Rbt.Parameter_File>
/export/apps/rDock/src/rDock_2013.1_src/data/scripts/dock_solv.prm

>  <Rbt.Receptor>
prm/pocket_docking_5.prm

>  <SCORE>
-52.9485

>  <SCORE.INTER>
-53.589

>  <SCORE.INTER.CONST>
1

>  <SCORE.INTER.POLAR>
0

>  <SCORE.INTER.ROT>
5

>  <SCORE.INTER.SOLV>
10.3988

>  <SCORE.INTER.VDW>
-46.1256

>  <SCORE.INTER.norm>
-2.14356

>  <SCORE.INTRA>
0.64051

>  <SCORE.INTRA.DIHEDRAL>
1.07803

>  <SCORE.INTRA.DIHEDRAL.0>
2.1627

>  <SCORE.INTRA.POLAR>
0

>  <SCORE.INTRA.POLAR.0>
0

>  <SCORE.INTRA.REPUL>
0

>  <SCORE.INTRA.REPUL.0>
0

>  <SCORE.INTRA.SOLV>
0.0242354

>  <SCORE.INTRA.SOLV.lig_0>
-5.95779

>  <SCORE.INTRA.VDW>
0.0893789

>  <SCORE.INTRA.VDW.0>
3.81702

>  <SCORE.INTRA.norm>
0.0256204

>  <SCORE.RESTR>
0

>  <SCORE.RESTR.CAVITY>
0

>  <SCORE.RESTR.norm>
0

>  <SCORE.SYSTEM>
0

>  <SCORE.SYSTEM.CONST>
0

>  <SCORE.SYSTEM.DIHEDRAL>
0

>  <SCORE.SYSTEM.SOLV>
0

>  <SCORE.SYSTEM.norm>
0

>  <SCORE.heavy>
25

>  <SCORE.norm>
-2.11794

>  <RMSD>
0.489

$$$$
1q8n_lig
 OpenBabel11021811403D
libRbt.so/2013.1/901 2013/11/27
 25 27  0  0  0  0  0  0  0  0999 V2000
    0.6382    0.9746   -1.8742 C   0  0  0  0  0  0  0  0  0  0  0  0
    0.5872    2.0614   -3.0915 C   0  0  0  0  0  0  0  0  0  0  0  0
    2.6537   -4.5030   -3.0382 N   0  0  0  0  0  0  0  0  0  0  0  0
    1.2430    3.2463   -3.0636 C   0  0  0  0  0  0  0  0  0  0  0  0
   -1.2819    2.5508    3.5795 N   0  0  0  0  0  0  0  0  0  0  0  0
    1.1656    4.2075   -4.1879 C   0  0  0  0  0  0  0  0  0  0  0  0
    0.4249    3.9063   -5.2790 C   0  0  0  0  0  0  0  0  0  0  0  0
   -0.2769    2.6451   -5.3322 C   0  0  0  0  0  0  0  0  0  0  0  0
   -0.2008    1.7877   -4.3114 C   0  0  0  0  0  0  0  0  0  0  0  0
    1.1914   -0.5250   -2.1983 C   0  0  0  0  0  0  0  0  0  0  0  0
    1.8890   -0.7851   -3.3235 C   0  0  0  0  0  0  0  0  0  0  0  0
    2.4017   -2.1480   -3.6357 C   0  0  0  0  0  0  0  0  0  0  0  0
    2.1760   -3.1775   -2.7763 C   0  0  0  0  0  0  0  0  0  0  0  0
    1.4167   -2.9079   -1.5407 C   0  0  0  0  0  0  0  0  0  0  0  0
    0.9608   -1.6755   -1.2761 C   0  0  0  0  0  0  0  0  0  0  0  0
    0.1446    1.3604   -0.3391 C   0  0  0  0  0  0  0  0  0  0  0  0
   -0.6282    2.6280   -0.0989 C   0  0  0  0  0  0  0  0  0  0  0  0
   -1.0629    2.9917    1.1106 C   0  0  0  0  0  0  0  0  0  0  0  0
   -0.8015    2.1561    2.2884 C   0  0  0  0  0  0  0  0  0  0  0  0
   -0.1066    1.0106    2.1290 C   0  0  0  0  0  0  0  0  0  0  0  0
    0.3857    0.5907    0.7739 C   0  0  0  0  0  0  0  0  0  0  0  0
    3.6629   -4.7717   -4.0169 C   0  0  0  0  0  0  0  0  0  0  0  0
    2.1235   -5.6149   -2.3117 C   0  0  0  0  0  0  0  0  0  0  0  0
   -1.0078    1.7433    4.7332 C   0  0  0  0  0  0  0  0  0  0  0  0
   -2.0444    3.7659    3.7569 C   0  0  0  0  0  0  0  0  0  0  0  0
  1  2  1  0  0  0  0
  1 10  1  0  0  0  0
  1 16  1  0  0  0  0
  2  4  2  0  0  0  0
  2  9  1  0  0  0  0
  4  6  1  0  0  0  0
  6  7  2  0  0  0  0
  7  8  1  0  0  0  0
  8  9  2  0  0  0  0
 10 11  2  0  0  0  0
 10 15  1  0  0  0  0
 11 12  1  0  0  0  0
 12 13  2  0  0  0  0
 13  3  1  0  0  0  0
 13 14  1  0  0  0  0
 14 15  2  0  0  0  0
 16 17  2  0  0  0  0
 16 21  1  0  0  0  0
 17 18  1  0  0  0  0
 18 19  2  0  0  0  0
 19  5  1  0  0  0  0
 19 20  1  0  0  0  0
 20 21  2  0  0  0  0
 22  3  1  0  0  0  0
 23  3  1  0  0  0  0
 24  5  1  0  0  0  0
 25  5  1  0  0  0  0
M  END
>  <CHROM.1>
-121.39428619,16.08073865,12.83161301,16.04740747,-179.03945996,0.62741337
0.41243675,-1.27932374,0.09882218,1.18417495,-0.91313414

>  <Name>
1q8n_lig

>  <RI>
0

>  <Rbt.Current_Directory>
/home/itssahil/PROJECTS/Mol_Feturizer/New_Systems/rnas/1q8n

>  <Rbt.Executable>
rbdock ($Id: //depot/dev/client3/rdock/2013.1/src/exe/rbdock.cxx#4 $)

>  <Rbt.Library>
libRbt.so (2013.1, Build901 2013/11/27)

>  <Rbt.Parameter_File>
/export/apps/rDock/src/rDock_2013.1_src/data/scripts/dock_solv.prm

>  <Rbt.Receptor>
prm/pocket_docking_2.prm

>  <SCORE>
-52.8601

>  <SCORE.INTER>
-53.3781

>  <SCORE.INTER.CONST>
1

>  <SCORE.INTER.POLAR>
0

>  <SCORE.INTER.ROT>
5

>  <SCORE.INTER.SOLV>
10.4006

>  <SCORE.INTER.VDW>
-45.9856

>  <SCORE.INTER.norm>
-2.13513

>  <SCORE.INTRA>
0.36111

>  <SCORE.INTRA.DIHEDRAL>
0.977939

>  <SCORE.INTRA.DIHEDRAL.0>
2.1627

>  <SCORE.INTRA.POLAR>
0

>  <SCORE.INTRA.POLAR.0>
0

>  <SCORE.INTRA.REPUL>
0

>  <SCORE.INTRA.REPUL.0>
0

>  <SCORE.INTRA.SOLV>
0.0158493

>  <SCORE.INTRA.SOLV.lig_0>
-5.95779

>  <SCORE.INTRA.VDW>
-0.135785

>  <SCORE.INTRA.VDW.0>
3.81702

>  <SCORE.INTRA.norm>
0.0144444

>  <SCORE.RESTR>
0.156945

>  <SCORE.RESTR.CAVITY>
0.156945

>  <SCORE.RESTR.norm>
0.00627779

>  <SCORE.SYSTEM>
0

>  <SCORE.SYSTEM.CONST>
0

>  <SCORE.SYSTEM.DIHEDRAL>
0

>  <SCORE.SYSTEM.SOLV>
0

>  <SCORE.SYSTEM.norm>
0

>  <SCORE.heavy>
25

>  <SCORE.norm>
-2.1144

>  <RMSD>
0.490

$$$$
1q8n_lig
 OpenBabel11021811403D
libRbt.so/2013.1/901 2013/11/27
 25 27  0  0  0  0  0  0  0  0999 V2000
    0.6538    0.9598   -1.8341 C   0  0  0  0  0  0  0  0  0  0  0  0
    0.6288    2.1046   -2.9979 C   0  0  0  0  0  0  0  0  0  0  0  0
   -1.2268    2.4528    3.6116 N   0  0  0  0  0  0  0  0  0  0  0  0
    1.2885    3.2837   -2.9008 C   0  0  0  0  0  0  0  0  0  0  0  0
    2.4597   -4.6843   -2.7258 N   0  0  0  0  0  0  0  0  0  0  0  0
    1.2351    4.2987   -3.9782 C   0  0  0  0  0  0  0  0  0  0  0  0
    0.5129    4.0543   -5.0956 C   0  0  0  0  0  0  0  0  0  0  0  0
   -0.1927    2.8006   -5.2225 C   0  0  0  0  0  0  0  0  0  0  0  0
   -0.1382    1.8942   -4.2434 C   0  0  0  0  0  0  0  0  0  0  0  0
    0.1394    1.3640   -0.3400 C   0  0  0  0  0  0  0  0  0  0  0  0
    0.4077    0.5830    0.7270 C   0  0  0  0  0  0  0  0  0  0  0  0
   -0.0539    0.9363    2.0982 C   0  0  0  0  0  0  0  0  0  0  0  0
   -0.7660    2.0756    2.3082 C   0  0  0  0  0  0  0  0  0  0  0  0
   -1.0651    2.9407    1.1514 C   0  0  0  0  0  0  0  0  0  0  0  0
   -0.6436    2.6068   -0.0764 C   0  0  0  0  0  0  0  0  0  0  0  0
    1.1850   -0.5811   -2.1374 C   0  0  0  0  0  0  0  0  0  0  0  0
    1.0149   -1.6495   -1.0929 C   0  0  0  0  0  0  0  0  0  0  0  0
    1.4119   -2.9115   -1.2778 C   0  0  0  0  0  0  0  0  0  0  0  0
    2.0475   -3.3254   -2.5342 C   0  0  0  0  0  0  0  0  0  0  0  0
    2.2296   -2.4037   -3.5027 C   0  0  0  0  0  0  0  0  0  0  0  0
    1.7859   -0.9826   -3.3067 C   0  0  0  0  0  0  0  0  0  0  0  0
   -0.9636    1.6601    4.7739 C   0  0  0  0  0  0  0  0  0  0  0  0
   -1.9768    3.6577    3.7882 C   0  0  0  0  0  0  0  0  0  0  0  0
    3.4238   -5.0142   -3.7358 C   0  0  0  0  0  0  0  0  0  0  0  0
    1.9259   -5.7522   -1.9109 C   0  0  0  0  0  0  0  0  0  0  0  0
  1  2  1  0  0  0  0
  1 10  1  0  0  0  0
  1 16  1  0  0  0  0
  2  4  2  0  0  0  0
  2  9  1  0  0  0  0
  4  6  1  0  0  0  0
  6  7  2  0  0  0  0
  7  8  1  0  0  0  0
  8  9  2  0  0  0  0
 10 11  2  0  0  0  0
 10 15  1  0  0  0  0
 11 12  1  0  0  0  0
 12 13  2  0  0  0  0
 13  3  1  0  0  0  0
 13 14  1  0  0  0  0
 14 15  2  0  0  0  0
 16 17  2  0  0  0  0
 16 21  1  0  0  0  0
 17 18  1  0  0  0  0
 18 19  2  0  0  0  0
 19  5  1  0  0  0  0
 19 20  1  0  0  0  0
 20 21  2  0  0  0  0
 22  3  1  0  0  0  0
 23  3  1  0  0  0  0
 24  5  1  0  0  0  0
 25  5  1  0  0  0  0
M  END
>  <CHROM.1>
57.95203820,-164.86851147,-171.62141584,0.25642154,-160.77729653,0.61219112
0.36356218,-1.16193640,-3.11914331,-1.20169995,2.28942002

>  <Name>
1q8n_lig

>  <RI>
0

>  <Rbt.Current_Directory>
/home/itssahil/PROJECTS/Mol_Feturizer/New_Systems/rnas/1q8n

>  <Rbt.Executable>
rbdock ($Id: //depot/dev/client3/rdock/2013.1/src/exe/rbdock.cxx#4 $)

>  <Rbt.Library>
libRbt.so (2013.1, Build901 2013/11/27)

>  <Rbt.Parameter_File>
/export/apps/rDock/src/rDock_2013.1_src/data/scripts/dock_solv.prm

>  <Rbt.Receptor>
prm/pocket_docking_4.prm

>  <SCORE>
-52.7617

>  <SCORE.INTER>
-53.5249

>  <SCORE.INTER.CONST>
1

>  <SCORE.INTER.POLAR>
0

>  <SCORE.INTER.ROT>
5

>  <SCORE.INTER.SOLV>
10.4507

>  <SCORE.INTER.VDW>
-46.1002

>  <SCORE.INTER.norm>
-2.141

>  <SCORE.INTRA>
0.763164

>  <SCORE.INTRA.DIHEDRAL>
1.38525

>  <SCORE.INTRA.DIHEDRAL.0>
2.1627

>  <SCORE.INTRA.POLAR>
0

>  <SCORE.INTRA.POLAR.0>
0

>  <SCORE.INTRA.REPUL>
0

>  <SCORE.INTRA.REPUL.0>
0

>  <SCORE.INTRA.SOLV>
0.0255338

>  <SCORE.INTRA.SOLV.lig_0>
-5.95779

>  <SCORE.INTRA.VDW>
0.0577722

>  <SCORE.INTRA.VDW.0>
3.81702

>  <SCORE.INTRA.norm>
0.0305266

>  <SCORE.RESTR>
5.26784e-05

>  <SCORE.RESTR.CAVITY>
5.26784e-05

>  <SCORE.RESTR.norm>
2.10714e-06

>  <SCORE.SYSTEM>
0

>  <SCORE.SYSTEM.CONST>
0

>  <SCORE.SYSTEM.DIHEDRAL>
0

>  <SCORE.SYSTEM.SOLV>
0

>  <SCORE.SYSTEM.norm>
0

>  <SCORE.heavy>
25

>  <SCORE.norm>
-2.11047

>  <RMSD>
0.490

$$$$
1q8n_lig
 OpenBabel11021811403D
libRbt.so/2013.1/901 2013/11/27
 25 27  0  0  0  0  0  0  0  0999 V2000
    0.6239    0.9713   -1.8806 C   0  0  0  0  0  0  0  0  0  0  0  0
    0.5715    2.0554   -3.1003 C   0  0  0  0  0  0  0  0  0  0  0  0
    2.6134   -4.5166   -3.0409 N   0  0  0  0  0  0  0  0  0  0  0  0
    1.2400    3.2334   -3.0825 C   0  0  0  0  0  0  0  0  0  0  0  0
   -1.2710    2.5629    3.5773 N   0  0  0  0  0  0  0  0  0  0  0  0
    1.1610    4.1925   -4.2084 C   0  0  0  0  0  0  0  0  0  0  0  0
    0.4056    3.8963   -5.2909 C   0  0  0  0  0  0  0  0  0  0  0  0
   -0.3101    2.6426   -5.3333 C   0  0  0  0  0  0  0  0  0  0  0  0
   -0.2322    1.7870   -4.3110 C   0  0  0  0  0  0  0  0  0  0  0  0
    1.1700   -0.5312   -2.2038 C   0  0  0  0  0  0  0  0  0  0  0  0
    1.8601   -0.7969   -3.3322 C   0  0  0  0  0  0  0  0  0  0  0  0
    2.3662   -2.1624   -3.6436 C   0  0  0  0  0  0  0  0  0  0  0  0
    2.1419   -3.1887   -2.7800 C   0  0  0  0  0  0  0  0  0  0  0  0
    1.3906   -2.9130   -1.5408 C   0  0  0  0  0  0  0  0  0  0  0  0
    0.9406   -1.6783   -1.2771 C   0  0  0  0  0  0  0  0  0  0  0  0
    0.1387    1.3625   -0.3443 C   0  0  0  0  0  0  0  0  0  0  0  0
   -0.6605    2.6145   -0.1089 C   0  0  0  0  0  0  0  0  0  0  0  0
   -1.0899    2.9815    1.1016 C   0  0  0  0  0  0  0  0  0  0  0  0
   -0.7960    2.1652    2.2852 C   0  0  0  0  0  0  0  0  0  0  0  0
   -0.0767    1.0342    2.1301 C   0  0  0  0  0  0  0  0  0  0  0  0
    0.4100    0.6109    0.7741 C   0  0  0  0  0  0  0  0  0  0  0  0
    2.0995   -5.6593   -2.3492 C   0  0  0  0  0  0  0  0  0  0  0  0
    3.6308   -4.7386   -4.0212 C   0  0  0  0  0  0  0  0  0  0  0  0
   -1.0014    1.7525    4.7301 C   0  0  0  0  0  0  0  0  0  0  0  0
   -2.0235    3.7840    3.7569 C   0  0  0  0  0  0  0  0  0  0  0  0
  1  2  1  0  0  0  0
  1 10  1  0  0  0  0
  1 16  1  0  0  0  0
  2  4  2  0  0  0  0
  2  9  1  0  0  0  0
  4  6  1  0  0  0  0
  6  7  2  0  0  0  0
  7  8  1  0  0  0  0
  8  9  2  0  0  0  0
 10 11  2  0  0  0  0
 10 15  1  0  0  0  0
 11 12  1  0  0  0  0
 12 13  2  0  0  0  0
 13  3  1  0  0  0  0
 13 14  1  0  0  0  0
 14 15  2  0  0  0  0
 16 17  2  0  0  0  0
 16 21  1  0  0  0  0
 17 18  1  0  0  0  0
 18 19  2  0  0  0  0
 19  5  1  0  0  0  0
 19 20  1  0  0  0  0
 20 21  2  0  0  0  0
 22  3  1  0  0  0  0
 23  3  1  0  0  0  0
 24  5  1  0  0  0  0
 25  5  1  0  0  0  0
M  END
>  <CHROM.1>
-120.87053043,16.00605174,14.49188495,-163.01626424,178.98514030,0.61352711
0.41034589,-1.28622475,0.10441757,1.18855637,-0.91971606

>  <Name>
1q8n_lig

>  <RI>
0

>  <Rbt.Current_Directory>
/home/itssahil/PROJECTS/Mol_Feturizer/New_Systems/rnas/1q8n

>  <Rbt.Executable>
rbdock ($Id: //depot/dev/client3/rdock/2013.1/src/exe/rbdock.cxx#4 $)

>  <Rbt.Library>
libRbt.so (2013.1, Build901 2013/11/27)

>  <Rbt.Parameter_File>
/export/apps/rDock/src/rDock_2013.1_src/data/scripts/dock_solv.prm

>  <Rbt.Receptor>
prm/pocket_docking_2.prm

>  <SCORE>
-52.7644

>  <SCORE.INTER>
-53.2957

>  <SCORE.INTER.CONST>
1

>  <SCORE.INTER.POLAR>
0

>  <SCORE.INTER.ROT>
5

>  <SCORE.INTER.SOLV>
10.4197

>  <SCORE.INTER.VDW>
-45.937

>  <SCORE.INTER.norm>
-2.13183

>  <SCORE.INTRA>
0.371742

>  <SCORE.INTRA.DIHEDRAL>
1.09244

>  <SCORE.INTRA.DIHEDRAL.0>
2.1627

>  <SCORE.INTRA.POLAR>
0

>  <SCORE.INTRA.POLAR.0>
0

>  <SCORE.INTRA.REPUL>
0

>  <SCORE.INTRA.REPUL.0>
0

>  <SCORE.INTRA.SOLV>
0.0141006

>  <SCORE.INTRA.SOLV.lig_0>
-5.95779

>  <SCORE.INTRA.VDW>
-0.181527

>  <SCORE.INTRA.VDW.0>
3.81702

>  <SCORE.INTRA.norm>
0.0148697

>  <SCORE.RESTR>
0.159503

>  <SCORE.RESTR.CAVITY>
0.159503

>  <SCORE.RESTR.norm>
0.00638012

>  <SCORE.SYSTEM>
0

>  <SCORE.SYSTEM.CONST>
0

>  <SCORE.SYSTEM.DIHEDRAL>
0

>  <SCORE.SYSTEM.SOLV>
0

>  <SCORE.SYSTEM.norm>
0

>  <SCORE.heavy>
25

>  <SCORE.norm>
-2.11058

>  <RMSD>
0.491

$$$$
1q8n_lig
 OpenBabel11021811403D
libRbt.so/2013.1/901 2013/11/27
 25 27  0  0  0  0  0  0  0  0999 V2000
    0.6283    0.9668   -1.8881 C   0  0  0  0  0  0  0  0  0  0  0  0
    0.5863    2.0526   -3.1066 C   0  0  0  0  0  0  0  0  0  0  0  0
    2.6067   -4.5260   -3.0441 N   0  0  0  0  0  0  0  0  0  0  0  0
    1.2442    3.2363   -3.0761 C   0  0  0  0  0  0  0  0  0  0  0  0
   -1.2767    2.5698    3.5630 N   0  0  0  0  0  0  0  0  0  0  0  0
    1.1750    4.1966   -4.2016 C   0  0  0  0  0  0  0  0  0  0  0  0
    0.4399    3.8959   -5.2966 C   0  0  0  0  0  0  0  0  0  0  0  0
   -0.2641    2.6361   -5.3527 C   0  0  0  0  0  0  0  0  0  0  0  0
   -0.1954    1.7794   -4.3307 C   0  0  0  0  0  0  0  0  0  0  0  0
    1.1714   -0.5371   -2.2100 C   0  0  0  0  0  0  0  0  0  0  0  0
    1.8720   -0.8023   -3.3321 C   0  0  0  0  0  0  0  0  0  0  0  0
    2.3756   -2.1691   -3.6423 C   0  0  0  0  0  0  0  0  0  0  0  0
    2.1381   -3.1969   -2.7841 C   0  0  0  0  0  0  0  0  0  0  0  0
    1.3752   -2.9217   -1.5519 C   0  0  0  0  0  0  0  0  0  0  0  0
    0.9277   -1.6859   -1.2892 C   0  0  0  0  0  0  0  0  0  0  0  0
    0.1357    1.3577   -0.3540 C   0  0  0  0  0  0  0  0  0  0  0  0
   -0.5701    2.6621   -0.1052 C   0  0  0  0  0  0  0  0  0  0  0  0
   -1.0006    3.0323    1.1039 C   0  0  0  0  0  0  0  0  0  0  0  0
   -0.8010    2.1674    2.2726 C   0  0  0  0  0  0  0  0  0  0  0  0
   -0.1675    0.9879    2.1053 C   0  0  0  0  0  0  0  0  0  0  0  0
    0.3195    0.5606    0.7506 C   0  0  0  0  0  0  0  0  0  0  0  0
    2.0970   -5.6661   -2.3448 C   0  0  0  0  0  0  0  0  0  0  0  0
    3.6167   -4.7520   -4.0310 C   0  0  0  0  0  0  0  0  0  0  0  0
   -0.9935    1.7722    4.7214 C   0  0  0  0  0  0  0  0  0  0  0  0
   -2.0434    3.7830    3.7352 C   0  0  0  0  0  0  0  0  0  0  0  0
  1  2  1  0  0  0  0
  1 10  1  0  0  0  0
  1 16  1  0  0  0  0
  2  4  2  0  0  0  0
  2  9  1  0  0  0  0
  4  6  1  0  0  0  0
  6  7  2  0  0  0  0
  7  8  1  0  0  0  0
  8  9  2  0  0  0  0
 10 11  2  0  0  0  0
 10 15  1  0  0  0  0
 11 12  1  0  0  0  0
 12 13  2  0  0  0  0
 13  3  1  0  0  0  0
 13 14  1  0  0  0  0
 14 15  2  0  0  0  0
 16 17  2  0  0  0  0
 16 21  1  0  0  0  0
 17 18  1  0  0  0  0
 18 19  2  0  0  0  0
 19  5  1  0  0  0  0
 19 20  1  0  0  0  0
 20 21  2  0  0  0  0
 22  3  1  0  0  0  0
 23  3  1  0  0  0  0
 24  5  1  0  0  0  0
 25  5  1  0  0  0  0
M  END
>  <CHROM.1>
-121.78069113,16.29775958,9.88567289,-164.10642359,-175.30042572,0.61700509
0.40793898,-1.29408029,0.08429930,1.19022492,-0.90049593

>  <Name>
1q8n_lig

>  <RI>
0

>  <Rbt.Current_Directory>
/home/itssahil/PROJECTS/Mol_Feturizer/New_Systems/rnas/1q8n

>  <Rbt.Executable>
rbdock ($Id: //depot/dev/client3/rdock/2013.1/src/exe/rbdock.cxx#4 $)

>  <Rbt.Library>
libRbt.so (2013.1, Build901 2013/11/27)

>  <Rbt.Parameter_File>
/export/apps/rDock/src/rDock_2013.1_src/data/scripts/dock_solv.prm

>  <Rbt.Receptor>
prm/pocket_docking_2.prm

>  <SCORE>
-52.7607

>  <SCORE.INTER>
-53.3081

>  <SCORE.INTER.CONST>
1

>  <SCORE.INTER.POLAR>
0

>  <SCORE.INTER.ROT>
5

>  <SCORE.INTER.SOLV>
10.4005

>  <SCORE.INTER.VDW>
-45.9389

>  <SCORE.INTER.norm>
-2.13232

>  <SCORE.INTRA>
0.402126

>  <SCORE.INTRA.DIHEDRAL>
1.04201

>  <SCORE.INTRA.DIHEDRAL.0>
2.1627

>  <SCORE.INTRA.POLAR>
0

>  <SCORE.INTRA.POLAR.0>
0

>  <SCORE.INTRA.REPUL>
0

>  <SCORE.INTRA.REPUL.0>
0

>  <SCORE.INTRA.SOLV>
0.0177627

>  <SCORE.INTRA.SOLV.lig_0>
-5.95779

>  <SCORE.INTRA.VDW>
-0.127759

>  <SCORE.INTRA.VDW.0>
3.81702

>  <SCORE.INTRA.norm>
0.016085

>  <SCORE.RESTR>
0.145193

>  <SCORE.RESTR.CAVITY>
0.145193

>  <SCORE.RESTR.norm>
0.00580771

>  <SCORE.SYSTEM>
0

>  <SCORE.SYSTEM.CONST>
0

>  <SCORE.SYSTEM.DIHEDRAL>
0

>  <SCORE.SYSTEM.SOLV>
0

>  <SCORE.SYSTEM.norm>
0

>  <SCORE.heavy>
25

>  <SCORE.norm>
-2.11043

>  <RMSD>
0.493

$$$$
1q8n_lig
 OpenBabel11021811403D
libRbt.so/2013.1/901 2013/11/27
 25 27  0  0  0  0  0  0  0  0999 V2000
    0.6036    0.9227   -1.8595 C   0  0  0  0  0  0  0  0  0  0  0  0
    0.5803    2.0407   -3.0490 C   0  0  0  0  0  0  0  0  0  0  0  0
   -1.2645    2.5451    3.5534 N   0  0  0  0  0  0  0  0  0  0  0  0
    1.2713    3.2045   -2.9947 C   0  0  0  0  0  0  0  0  0  0  0  0
    2.6436   -4.5918   -3.0176 N   0  0  0  0  0  0  0  0  0  0  0  0
    1.2182    4.1956   -4.0942 C   0  0  0  0  0  0  0  0  0  0  0  0
    0.4645    3.9440   -5.1890 C   0  0  0  0  0  0  0  0  0  0  0  0
   -0.2749    2.7061   -5.2704 C   0  0  0  0  0  0  0  0  0  0  0  0
   -0.2204    1.8213   -4.2716 C   0  0  0  0  0  0  0  0  0  0  0  0
    0.0922    1.3622   -0.3744 C   0  0  0  0  0  0  0  0  0  0  0  0
    0.2703    0.5569    0.6933 C   0  0  0  0  0  0  0  0  0  0  0  0
   -0.1901    0.9417    2.0564 C   0  0  0  0  0  0  0  0  0  0  0  0
   -0.8084    2.1360    2.2579 C   0  0  0  0  0  0  0  0  0  0  0  0
   -1.0081    3.0282    1.1003 C   0  0  0  0  0  0  0  0  0  0  0  0
   -0.5892    2.6654   -0.1201 C   0  0  0  0  0  0  0  0  0  0  0  0
    1.1304   -0.6262   -2.1282 C   0  0  0  0  0  0  0  0  0  0  0  0
    1.9216   -0.9421   -3.3674 C   0  0  0  0  0  0  0  0  0  0  0  0
    2.3831   -2.1660   -3.6383 C   0  0  0  0  0  0  0  0  0  0  0  0
    2.1346   -3.2853   -2.7222 C   0  0  0  0  0  0  0  0  0  0  0  0
    1.4241   -3.0571   -1.5981 C   0  0  0  0  0  0  0  0  0  0  0  0
    0.9017   -1.6852   -1.2823 C   0  0  0  0  0  0  0  0  0  0  0  0
   -0.9801    1.7914    4.7365 C   0  0  0  0  0  0  0  0  0  0  0  0
   -2.0312    3.7433    3.7004 C   0  0  0  0  0  0  0  0  0  0  0  0
    2.0880   -5.7487   -2.3763 C   0  0  0  0  0  0  0  0  0  0  0  0
    3.7178   -4.7817   -3.9661 C   0  0  0  0  0  0  0  0  0  0  0  0
  1  2  1  0  0  0  0
  1 10  1  0  0  0  0
  1 16  1  0  0  0  0
  2  4  2  0  0  0  0
  2  9  1  0  0  0  0
  4  6  1  0  0  0  0
  6  7  2  0  0  0  0
  7  8  1  0  0  0  0
  8  9  2  0  0  0  0
 10 11  2  0  0  0  0
 10 15  1  0  0  0  0
 11 12  1  0  0  0  0
 12 13  2  0  0  0  0
 13  3  1  0  0  0  0
 13 14  1  0  0  0  0
 14 15  2  0  0  0  0
 16 17  2  0  0  0  0
 16 21  1  0  0  0  0
 17 18  1  0  0  0  0
 18 19  2  0  0  0  0
 19  5  1  0  0  0  0
 19 20  1  0  0  0  0
 20 21  2  0  0  0  0
 22  3  1  0  0  0  0
 23  3  1  0  0  0  0
 24  5  1  0  0  0  0
 25  5  1  0  0  0  0
M  END
>  <CHROM.1>
59.74216989,-169.98230470,15.65651176,6.52610415,-161.02812428,0.62139541
0.38079683,-1.27601815,3.09794900,-1.18775362,2.25617064

>  <Name>
1q8n_lig

>  <RI>
0

>  <Rbt.Current_Directory>
/home/itssahil/PROJECTS/Mol_Feturizer/New_Systems/rnas/1q8n

>  <Rbt.Executable>
rbdock ($Id: //depot/dev/client3/rdock/2013.1/src/exe/rbdock.cxx#4 $)

>  <Rbt.Library>
libRbt.so (2013.1, Build901 2013/11/27)

>  <Rbt.Parameter_File>
/export/apps/rDock/src/rDock_2013.1_src/data/scripts/dock_solv.prm

>  <Rbt.Receptor>
prm/pocket_docking_2.prm

>  <SCORE>
-52.1518

>  <SCORE.INTER>
-52.7727

>  <SCORE.INTER.CONST>
1

>  <SCORE.INTER.POLAR>
0

>  <SCORE.INTER.ROT>
5

>  <SCORE.INTER.SOLV>
10.4424

>  <SCORE.INTER.VDW>
-45.596

>  <SCORE.INTER.norm>
-2.11091

>  <SCORE.INTRA>
0.517234

>  <SCORE.INTRA.DIHEDRAL>
1.51398

>  <SCORE.INTRA.DIHEDRAL.0>
2.1627

>  <SCORE.INTRA.POLAR>
0

>  <SCORE.INTRA.POLAR.0>
0

>  <SCORE.INTRA.REPUL>
0

>  <SCORE.INTRA.REPUL.0>
0

>  <SCORE.INTRA.SOLV>
0.0150165

>  <SCORE.INTRA.SOLV.lig_0>
-5.95779

>  <SCORE.INTRA.VDW>
-0.247263

>  <SCORE.INTRA.VDW.0>
3.81702

>  <SCORE.INTRA.norm>
0.0206893

>  <SCORE.RESTR>
0.103657

>  <SCORE.RESTR.CAVITY>
0.103657

>  <SCORE.RESTR.norm>
0.00414628

>  <SCORE.SYSTEM>
0

>  <SCORE.SYSTEM.CONST>
0

>  <SCORE.SYSTEM.DIHEDRAL>
0

>  <SCORE.SYSTEM.SOLV>
0

>  <SCORE.SYSTEM.norm>
0

>  <SCORE.heavy>
25

>  <SCORE.norm>
-2.08607

>  <RMSD>
0.495

$$$$
1q8n_lig
 OpenBabel11021811403D
libRbt.so/2013.1/901 2013/11/27
 25 27  0  0  0  0  0  0  0  0999 V2000
    0.6164    0.9556   -1.8814 C   0  0  0  0  0  0  0  0  0  0  0  0
    0.5704    2.0381   -3.1026 C   0  0  0  0  0  0  0  0  0  0  0  0
    2.6063   -4.5356   -3.0254 N   0  0  0  0  0  0  0  0  0  0  0  0
    1.2464    3.2118   -3.0869 C   0  0  0  0  0  0  0  0  0  0  0  0
   -1.2855    2.5686    3.5679 N   0  0  0  0  0  0  0  0  0  0  0  0
    1.1730    4.1697   -4.2143 C   0  0  0  0  0  0  0  0  0  0  0  0
    0.4154    3.8766   -5.2961 C   0  0  0  0  0  0  0  0  0  0  0  0
   -0.3082    2.6274   -5.3363 C   0  0  0  0  0  0  0  0  0  0  0  0
   -0.2354    1.7729   -4.3127 C   0  0  0  0  0  0  0  0  0  0  0  0
    1.1626   -0.5479   -2.2000 C   0  0  0  0  0  0  0  0  0  0  0  0
    1.8532   -0.8167   -3.3274 C   0  0  0  0  0  0  0  0  0  0  0  0
    2.3594   -2.1831   -3.6347 C   0  0  0  0  0  0  0  0  0  0  0  0
    2.1347   -3.2070   -2.7684 C   0  0  0  0  0  0  0  0  0  0  0  0
    1.3828   -2.9278   -1.5304 C   0  0  0  0  0  0  0  0  0  0  0  0
    0.9327   -1.6924   -1.2703 C   0  0  0  0  0  0  0  0  0  0  0  0
    0.1247    1.3493   -0.3477 C   0  0  0  0  0  0  0  0  0  0  0  0
   -0.5815    2.6539   -0.1011 C   0  0  0  0  0  0  0  0  0  0  0  0
   -1.0114    3.0263    1.1076 C   0  0  0  0  0  0  0  0  0  0  0  0
   -0.8106    2.1638    2.2779 C   0  0  0  0  0  0  0  0  0  0  0  0
   -0.1767    0.9843    2.1125 C   0  0  0  0  0  0  0  0  0  0  0  0
    0.3096    0.5545    0.7584 C   0  0  0  0  0  0  0  0  0  0  0  0
    2.0918   -5.6764   -2.3309 C   0  0  0  0  0  0  0  0  0  0  0  0
    3.6242   -4.7603   -4.0045 C   0  0  0  0  0  0  0  0  0  0  0  0
   -2.0292    3.7863    3.7175 C   0  0  0  0  0  0  0  0  0  0  0  0
   -1.0370    1.7666    4.7445 C   0  0  0  0  0  0  0  0  0  0  0  0
  1  2  1  0  0  0  0
  1 10  1  0  0  0  0
  1 16  1  0  0  0  0
  2  4  2  0  0  0  0
  2  9  1  0  0  0  0
  4  6  1  0  0  0  0
  6  7  2  0  0  0  0
  7  8  1  0  0  0  0
  8  9  2  0  0  0  0
 10 11  2  0  0  0  0
 10 15  1  0  0  0  0
 11 12  1  0  0  0  0
 12 13  2  0  0  0  0
 13  3  1  0  0  0  0
 13 14  1  0  0  0  0
 14 15  2  0  0  0  0
 16 17  2  0  0  0  0
 16 21  1  0  0  0  0
 17 18  1  0  0  0  0
 18 19  2  0  0  0  0
 19  5  1  0  0  0  0
 19 20  1  0  0  0  0
 20 21  2  0  0  0  0
 22  3  1  0  0  0  0
 23  3  1  0  0  0  0
 24  5  1  0  0  0  0
 25  5  1  0  0  0  0
M  END
>  <CHROM.1>
-120.45340130,15.75756115,9.77016560,-163.00784986,3.53453844,0.60636954
0.39842956,-1.28580570,0.08966829,1.18889854,-0.90812379

>  <Name>
1q8n_lig

>  <RI>
0

>  <Rbt.Current_Directory>
/home/itssahil/PROJECTS/Mol_Feturizer/New_Systems/rnas/1q8n

>  <Rbt.Executable>
rbdock ($Id: //depot/dev/client3/rdock/2013.1/src/exe/rbdock.cxx#4 $)

>  <Rbt.Library>
libRbt.so (2013.1, Build901 2013/11/27)

>  <Rbt.Parameter_File>
/export/apps/rDock/src/rDock_2013.1_src/data/scripts/dock_solv.prm

>  <Rbt.Receptor>
prm/pocket_docking_2.prm

>  <SCORE>
-52.9552

>  <SCORE.INTER>
-53.4397

>  <SCORE.INTER.CONST>
1

>  <SCORE.INTER.POLAR>
0

>  <SCORE.INTER.ROT>
5

>  <SCORE.INTER.SOLV>
10.3703

>  <SCORE.INTER.VDW>
-46.0166

>  <SCORE.INTER.norm>
-2.13759

>  <SCORE.INTRA>
0.364165

>  <SCORE.INTRA.DIHEDRAL>
1.13811

>  <SCORE.INTRA.DIHEDRAL.0>
2.1627

>  <SCORE.INTRA.POLAR>
0

>  <SCORE.INTRA.POLAR.0>
0

>  <SCORE.INTRA.REPUL>
0

>  <SCORE.INTRA.REPUL.0>
0

>  <SCORE.INTRA.SOLV>
0.0162145

>  <SCORE.INTRA.SOLV.lig_0>
-5.95779

>  <SCORE.INTRA.VDW>
-0.212998

>  <SCORE.INTRA.VDW.0>
3.81702

>  <SCORE.INTRA.norm>
0.0145666

>  <SCORE.RESTR>
0.120271

>  <SCORE.RESTR.CAVITY>
0.120271

>  <SCORE.RESTR.norm>
0.00481083

>  <SCORE.SYSTEM>
0

>  <SCORE.SYSTEM.CONST>
0

>  <SCORE.SYSTEM.DIHEDRAL>
0

>  <SCORE.SYSTEM.SOLV>
0

>  <SCORE.SYSTEM.norm>
0

>  <SCORE.heavy>
25

>  <SCORE.norm>
-2.11821

>  <RMSD>
0.495

$$$$
1q8n_lig
 OpenBabel11021811403D
libRbt.so/2013.1/901 2013/11/27
 25 27  0  0  0  0  0  0  0  0999 V2000
    0.5421    0.9169   -1.8646 C   0  0  0  0  0  0  0  0  0  0  0  0
    0.5023    2.0275   -3.0605 C   0  0  0  0  0  0  0  0  0  0  0  0
   -1.2852    2.5238    3.5669 N   0  0  0  0  0  0  0  0  0  0  0  0
   -0.1824    1.8567   -4.2168 C   0  0  0  0  0  0  0  0  0  0  0  0
    2.6023   -4.5928   -3.0098 N   0  0  0  0  0  0  0  0  0  0  0  0
   -0.1878    2.8879   -5.2800 C   0  0  0  0  0  0  0  0  0  0  0  0
    0.5042    4.0369   -5.1045 C   0  0  0  0  0  0  0  0  0  0  0  0
    1.2355    4.2424   -3.8762 C   0  0  0  0  0  0  0  0  0  0  0  0
    1.2342    3.3043   -2.9258 C   0  0  0  0  0  0  0  0  0  0  0  0
    0.0401    1.3622   -0.3780 C   0  0  0  0  0  0  0  0  0  0  0  0
   -0.7099    2.4687   -0.1954 C   0  0  0  0  0  0  0  0  0  0  0  0
   -1.1771    2.8904    1.1544 C   0  0  0  0  0  0  0  0  0  0  0  0
   -0.8542    2.1541    2.2511 C   0  0  0  0  0  0  0  0  0  0  0  0
   -0.0365    0.9402    2.0669 C   0  0  0  0  0  0  0  0  0  0  0  0
    0.3772    0.5761    0.8450 C   0  0  0  0  0  0  0  0  0  0  0  0
    1.0762   -0.6303   -2.1283 C   0  0  0  0  0  0  0  0  0  0  0  0
    1.8344   -0.9551   -3.3858 C   0  0  0  0  0  0  0  0  0  0  0  0
    2.3000   -2.1781   -3.6541 C   0  0  0  0  0  0  0  0  0  0  0  0
    2.0891   -3.2874   -2.7167 C   0  0  0  0  0  0  0  0  0  0  0  0
    1.4091   -3.0512   -1.5755 C   0  0  0  0  0  0  0  0  0  0  0  0
    0.8825   -1.6802   -1.2625 C   0  0  0  0  0  0  0  0  0  0  0  0
   -2.0369    3.7157    3.8177 C   0  0  0  0  0  0  0  0  0  0  0  0
   -0.9692    1.6926    4.6869 C   0  0  0  0  0  0  0  0  0  0  0  0
    2.0836   -5.7453   -2.3307 C   0  0  0  0  0  0  0  0  0  0  0  0
    3.6438   -4.7861   -3.9934 C   0  0  0  0  0  0  0  0  0  0  0  0
  1  2  1  0  0  0  0
  1 10  1  0  0  0  0
  1 16  1  0  0  0  0
  2  4  2  0  0  0  0
  2  9  1  0  0  0  0
  4  6  1  0  0  0  0
  6  7  2  0  0  0  0
  7  8  1  0  0  0  0
  8  9  2  0  0  0  0
 10 11  2  0  0  0  0
 10 15  1  0  0  0  0
 11 12  1  0  0  0  0
 12 13  2  0  0  0  0
 13  3  1  0  0  0  0
 13 14  1  0  0  0  0
 14 15  2  0  0  0  0
 16 17  2  0  0  0  0
 16 21  1  0  0  0  0
 17 18  1  0  0  0  0
 18 19  2  0  0  0  0
 19  5  1  0  0  0  0
 19 20  1  0  0  0  0
 20 21  2  0  0  0  0
 22  3  1  0  0  0  0
 23  3  1  0  0  0  0
 24  5  1  0  0  0  0
 25  5  1  0  0  0  0
M  END
>  <CHROM.1>
-122.55755357,17.40949685,14.38001512,-2.47121613,-161.47529052,0.59950466
0.37872292,-1.24970251,3.11739961,-1.18999596,2.27518473

>  <Name>
1q8n_lig

>  <RI>
0

>  <Rbt.Current_Directory>
/home/itssahil/PROJECTS/Mol_Feturizer/New_Systems/rnas/1q8n

>  <Rbt.Executable>
rbdock ($Id: //depot/dev/client3/rdock/2013.1/src/exe/rbdock.cxx#4 $)

>  <Rbt.Library>
libRbt.so (2013.1, Build901 2013/11/27)

>  <Rbt.Parameter_File>
/export/apps/rDock/src/rDock_2013.1_src/data/scripts/dock_solv.prm

>  <Rbt.Receptor>
prm/pocket_docking_2.prm

>  <SCORE>
-51.5068

>  <SCORE.INTER>
-52.098

>  <SCORE.INTER.CONST>
1

>  <SCORE.INTER.POLAR>
0

>  <SCORE.INTER.ROT>
5

>  <SCORE.INTER.SOLV>
10.6119

>  <SCORE.INTER.VDW>
-45.2027

>  <SCORE.INTER.norm>
-2.08392

>  <SCORE.INTRA>
0.35617

>  <SCORE.INTRA.DIHEDRAL>
1.31023

>  <SCORE.INTRA.DIHEDRAL.0>
2.1627

>  <SCORE.INTRA.POLAR>
0

>  <SCORE.INTRA.POLAR.0>
0

>  <SCORE.INTRA.REPUL>
0

>  <SCORE.INTRA.REPUL.0>
0

>  <SCORE.INTRA.SOLV>
0.0156707

>  <SCORE.INTRA.SOLV.lig_0>
-5.95779

>  <SCORE.INTRA.VDW>
-0.30678

>  <SCORE.INTRA.VDW.0>
3.81702

>  <SCORE.INTRA.norm>
0.0142468

>  <SCORE.RESTR>
0.23509

>  <SCORE.RESTR.CAVITY>
0.23509

>  <SCORE.RESTR.norm>
0.00940362

>  <SCORE.SYSTEM>
0

>  <SCORE.SYSTEM.CONST>
0

>  <SCORE.SYSTEM.DIHEDRAL>
0

>  <SCORE.SYSTEM.SOLV>
0

>  <SCORE.SYSTEM.norm>
0

>  <SCORE.heavy>
25

>  <SCORE.norm>
-2.06027

>  <RMSD>
0.495

$$$$
1q8n_lig
 OpenBabel11021811413D
libRbt.so/2013.1/901 2013/11/27
 25 27  0  0  0  0  0  0  0  0999 V2000
    0.5284    1.1217   -1.9082 C   0  0  0  0  0  0  0  0  0  0  0  0
    0.4898    2.1798   -3.1509 C   0  0  0  0  0  0  0  0  0  0  0  0
    2.5866   -4.3709   -2.9165 N   0  0  0  0  0  0  0  0  0  0  0  0
   -0.2296    1.9796   -4.2810 C   0  0  0  0  0  0  0  0  0  0  0  0
   -1.2278    2.4353    3.6689 N   0  0  0  0  0  0  0  0  0  0  0  0
   -0.2326    2.9631   -5.3885 C   0  0  0  0  0  0  0  0  0  0  0  0
    0.4970    4.0972   -5.2814 C   0  0  0  0  0  0  0  0  0  0  0  0
    1.2661    4.3336   -4.0820 C   0  0  0  0  0  0  0  0  0  0  0  0
    1.2621    3.4384   -3.0912 C   0  0  0  0  0  0  0  0  0  0  0  0
    1.0933   -0.3822   -2.1897 C   0  0  0  0  0  0  0  0  0  0  0  0
    1.7966   -0.6677   -3.3051 C   0  0  0  0  0  0  0  0  0  0  0  0
    2.3199   -2.0349   -3.5785 C   0  0  0  0  0  0  0  0  0  0  0  0
    2.0986   -3.0423   -2.6922 C   0  0  0  0  0  0  0  0  0  0  0  0
    1.3331   -2.7447   -1.4669 C   0  0  0  0  0  0  0  0  0  0  0  0
    0.8677   -1.5089   -1.2373 C   0  0  0  0  0  0  0  0  0  0  0  0
    0.0109    1.5402   -0.3897 C   0  0  0  0  0  0  0  0  0  0  0  0
    0.1861    0.5767    0.7516 C   0  0  0  0  0  0  0  0  0  0  0  0
   -0.1998    0.8560    1.9996 C   0  0  0  0  0  0  0  0  0  0  0  0
   -0.8275    2.1421    2.3245 C   0  0  0  0  0  0  0  0  0  0  0  0
   -1.0138    3.0406    1.3353 C   0  0  0  0  0  0  0  0  0  0  0  0
   -0.5825    2.7384   -0.0709 C   0  0  0  0  0  0  0  0  0  0  0  0
    2.1154   -5.4946   -2.1656 C   0  0  0  0  0  0  0  0  0  0  0  0
    3.5776   -4.6132   -3.9187 C   0  0  0  0  0  0  0  0  0  0  0  0
   -1.9844    3.6194    3.9584 C   0  0  0  0  0  0  0  0  0  0  0  0
   -0.8896    1.5519    4.7619 C   0  0  0  0  0  0  0  0  0  0  0  0
  1  2  1  0  0  0  0
  1 10  1  0  0  0  0
  1 16  1  0  0  0  0
  2  4  2  0  0  0  0
  2  9  1  0  0  0  0
  4  6  1  0  0  0  0
  6  7  2  0  0  0  0
  7  8  1  0  0  0  0
  8  9  2  0  0  0  0
 10 11  2  0  0  0  0
 10 15  1  0  0  0  0
 11 12  1  0  0  0  0
 12 13  2  0  0  0  0
 13  3  1  0  0  0  0
 13 14  1  0  0  0  0
 14 15  2  0  0  0  0
 16 17  2  0  0  0  0
 16 21  1  0  0  0  0
 17 18  1  0  0  0  0
 18 19  2  0  0  0  0
 19  5  1  0  0  0  0
 19 20  1  0  0  0  0
 20 21  2  0  0  0  0
 22  3  1  0  0  0  0
 23  3  1  0  0  0  0
 24  5  1  0  0  0  0
 25  5  1  0  0  0  0
M  END
>  <CHROM.1>
60.80265905,15.39845183,-174.20781881,-165.48105233,-172.44288047,0.59719505
0.49852589,-1.23607961,0.09282537,1.18718617,-0.87975107

>  <Name>
1q8n_lig

>  <RI>
0

>  <Rbt.Current_Directory>
/home/itssahil/PROJECTS/Mol_Feturizer/New_Systems/rnas/1q8n

>  <Rbt.Executable>
rbdock ($Id: //depot/dev/client3/rdock/2013.1/src/exe/rbdock.cxx#4 $)

>  <Rbt.Library>
libRbt.so (2013.1, Build901 2013/11/27)

>  <Rbt.Parameter_File>
/export/apps/rDock/src/rDock_2013.1_src/data/scripts/dock_solv.prm

>  <Rbt.Receptor>
prm/pocket_docking_6.prm

>  <SCORE>
-53.6716

>  <SCORE.INTER>
-54.3346

>  <SCORE.INTER.CONST>
1

>  <SCORE.INTER.POLAR>
0

>  <SCORE.INTER.ROT>
5

>  <SCORE.INTER.SOLV>
10.4305

>  <SCORE.INTER.VDW>
-46.6332

>  <SCORE.INTER.norm>
-2.17338

>  <SCORE.INTRA>
0.663032

>  <SCORE.INTRA.DIHEDRAL>
1.023

>  <SCORE.INTRA.DIHEDRAL.0>
2.1627

>  <SCORE.INTRA.POLAR>
0

>  <SCORE.INTRA.POLAR.0>
0

>  <SCORE.INTRA.REPUL>
0

>  <SCORE.INTRA.REPUL.0>
0

>  <SCORE.INTRA.SOLV>
0.0248994

>  <SCORE.INTRA.SOLV.lig_0>
-5.95779

>  <SCORE.INTRA.VDW>
0.139081

>  <SCORE.INTRA.VDW.0>
3.81702

>  <SCORE.INTRA.norm>
0.0265213

>  <SCORE.RESTR>
0

>  <SCORE.RESTR.CAVITY>
0

>  <SCORE.RESTR.norm>
0

>  <SCORE.SYSTEM>
0

>  <SCORE.SYSTEM.CONST>
0

>  <SCORE.SYSTEM.DIHEDRAL>
0

>  <SCORE.SYSTEM.SOLV>
0

>  <SCORE.SYSTEM.norm>
0

>  <SCORE.heavy>
25

>  <SCORE.norm>
-2.14686

>  <RMSD>
0.496

$$$$
1q8n_lig
 OpenBabel11021811403D
libRbt.so/2013.1/901 2013/11/27
 25 27  0  0  0  0  0  0  0  0999 V2000
    0.6243    0.9605   -1.8816 C   0  0  0  0  0  0  0  0  0  0  0  0
    0.5813    2.0477   -3.0989 C   0  0  0  0  0  0  0  0  0  0  0  0
    2.6152   -4.5268   -3.0424 N   0  0  0  0  0  0  0  0  0  0  0  0
    1.2468    3.2272   -3.0715 C   0  0  0  0  0  0  0  0  0  0  0  0
   -1.2889    2.5532    3.5696 N   0  0  0  0  0  0  0  0  0  0  0  0
    1.1765    4.1891   -4.1957 C   0  0  0  0  0  0  0  0  0  0  0  0
    0.4324    3.8940   -5.2862 C   0  0  0  0  0  0  0  0  0  0  0  0
   -0.2798    2.6387   -5.3389 C   0  0  0  0  0  0  0  0  0  0  0  0
   -0.2099    1.7806   -4.3181 C   0  0  0  0  0  0  0  0  0  0  0  0
    1.1707   -0.5418   -2.2049 C   0  0  0  0  0  0  0  0  0  0  0  0
    1.8542   -0.8089   -3.3371 C   0  0  0  0  0  0  0  0  0  0  0  0
    2.3604   -2.1744   -3.6487 C   0  0  0  0  0  0  0  0  0  0  0  0
    2.1432   -3.1991   -2.7814 C   0  0  0  0  0  0  0  0  0  0  0  0
    1.3994   -2.9218   -1.5381 C   0  0  0  0  0  0  0  0  0  0  0  0
    0.9491   -1.6872   -1.2742 C   0  0  0  0  0  0  0  0  0  0  0  0
    0.1295    1.3485   -0.3476 C   0  0  0  0  0  0  0  0  0  0  0  0
   -0.5777    2.6520   -0.0976 C   0  0  0  0  0  0  0  0  0  0  0  0
   -1.0101    3.0199    1.1116 C   0  0  0  0  0  0  0  0  0  0  0  0
   -0.8113    2.1532    2.2791 C   0  0  0  0  0  0  0  0  0  0  0  0
   -0.1765    0.9746    2.1108 C   0  0  0  0  0  0  0  0  0  0  0  0
    0.3125    0.5498    0.7560 C   0  0  0  0  0  0  0  0  0  0  0  0
    2.1021   -5.6697   -2.3503 C   0  0  0  0  0  0  0  0  0  0  0  0
    3.6322   -4.7485   -4.0231 C   0  0  0  0  0  0  0  0  0  0  0  0
   -2.0313    3.7713    3.7226 C   0  0  0  0  0  0  0  0  0  0  0  0
   -1.0443    1.7459    4.7434 C   0  0  0  0  0  0  0  0  0  0  0  0
  1  2  1  0  0  0  0
  1 10  1  0  0  0  0
  1 16  1  0  0  0  0
  2  4  2  0  0  0  0
  2  9  1  0  0  0  0
  4  6  1  0  0  0  0
  6  7  2  0  0  0  0
  7  8  1  0  0  0  0
  8  9  2  0  0  0  0
 10 11  2  0  0  0  0
 10 15  1  0  0  0  0
 11 12  1  0  0  0  0
 12 13  2  0  0  0  0
 13  3  1  0  0  0  0
 13 14  1  0  0  0  0
 14 15  2  0  0  0  0
 16 17  2  0  0  0  0
 16 21  1  0  0  0  0
 17 18  1  0  0  0  0
 18 19  2  0  0  0  0
 19  5  1  0  0  0  0
 19 20  1  0  0  0  0
 20 21  2  0  0  0  0
 22  3  1  0  0  0  0
 23  3  1  0  0  0  0
 24  5  1  0  0  0  0
 25  5  1  0  0  0  0
M  END
>  <CHROM.1>
-121.14375305,15.20152770,9.81089471,-162.65281927,3.42682127,0.61312515
0.40101379,-1.28832631,0.08556560,1.18794378,-0.90039216

>  <Name>
1q8n_lig

>  <RI>
0

>  <Rbt.Current_Directory>
/home/itssahil/PROJECTS/Mol_Feturizer/New_Systems/rnas/1q8n

>  <Rbt.Executable>
rbdock ($Id: //depot/dev/client3/rdock/2013.1/src/exe/rbdock.cxx#4 $)

>  <Rbt.Library>
libRbt.so (2013.1, Build901 2013/11/27)

>  <Rbt.Parameter_File>
/export/apps/rDock/src/rDock_2013.1_src/data/scripts/dock_solv.prm

>  <Rbt.Receptor>
prm/pocket_docking_2.prm

>  <SCORE>
-52.9725

>  <SCORE.INTER>
-53.4793

>  <SCORE.INTER.CONST>
1

>  <SCORE.INTER.POLAR>
0

>  <SCORE.INTER.ROT>
5

>  <SCORE.INTER.SOLV>
10.3721

>  <SCORE.INTER.VDW>
-46.0435

>  <SCORE.INTER.norm>
-2.13917

>  <SCORE.INTRA>
0.380914

>  <SCORE.INTRA.DIHEDRAL>
1.17997

>  <SCORE.INTRA.DIHEDRAL.0>
2.1627

>  <SCORE.INTRA.POLAR>
0

>  <SCORE.INTRA.POLAR.0>
0

>  <SCORE.INTRA.REPUL>
0

>  <SCORE.INTRA.REPUL.0>
0

>  <SCORE.INTRA.SOLV>
0.0175774

>  <SCORE.INTRA.SOLV.lig_0>
-5.95779

>  <SCORE.INTRA.VDW>
-0.217861

>  <SCORE.INTRA.VDW.0>
3.81702

>  <SCORE.INTRA.norm>
0.0152366

>  <SCORE.RESTR>
0.125865

>  <SCORE.RESTR.CAVITY>
0.125865

>  <SCORE.RESTR.norm>
0.00503461

>  <SCORE.SYSTEM>
0

>  <SCORE.SYSTEM.CONST>
0

>  <SCORE.SYSTEM.DIHEDRAL>
0

>  <SCORE.SYSTEM.SOLV>
0

>  <SCORE.SYSTEM.norm>
0

>  <SCORE.heavy>
25

>  <SCORE.norm>
-2.1189

>  <RMSD>
0.499

$$$$
1q8n_lig
 OpenBabel11021811403D
libRbt.so/2013.1/901 2013/11/27
 25 27  0  0  0  0  0  0  0  0999 V2000
    0.6010    0.9253   -1.8818 C   0  0  0  0  0  0  0  0  0  0  0  0
    0.5511    2.0553   -3.0592 C   0  0  0  0  0  0  0  0  0  0  0  0
   -1.2295    2.4290    3.5781 N   0  0  0  0  0  0  0  0  0  0  0  0
   -0.1379    1.9003   -4.2152 C   0  0  0  0  0  0  0  0  0  0  0  0
    2.4462   -4.7126   -2.7313 N   0  0  0  0  0  0  0  0  0  0  0  0
   -0.1524    2.9488   -5.2613 C   0  0  0  0  0  0  0  0  0  0  0  0
    0.5353    4.0978   -5.0699 C   0  0  0  0  0  0  0  0  0  0  0  0
    1.2711    4.2863   -3.8416 C   0  0  0  0  0  0  0  0  0  0  0  0
    1.2780    3.3328   -2.9067 C   0  0  0  0  0  0  0  0  0  0  0  0
    0.0987    1.3425   -0.3872 C   0  0  0  0  0  0  0  0  0  0  0  0
   -0.5364    2.5118   -0.1638 C   0  0  0  0  0  0  0  0  0  0  0  0
   -1.0019    2.9090    1.1939 C   0  0  0  0  0  0  0  0  0  0  0  0
   -0.7956    2.0854    2.2562 C   0  0  0  0  0  0  0  0  0  0  0  0
   -0.1045    0.8025    2.0270 C   0  0  0  0  0  0  0  0  0  0  0  0
    0.3096    0.4613    0.7987 C   0  0  0  0  0  0  0  0  0  0  0  0
    1.1454   -0.6135   -2.1720 C   0  0  0  0  0  0  0  0  0  0  0  0
    0.9337   -1.6880   -1.1413 C   0  0  0  0  0  0  0  0  0  0  0  0
    1.3390   -2.9486   -1.3171 C   0  0  0  0  0  0  0  0  0  0  0  0
    2.0255   -3.3550   -2.5490 C   0  0  0  0  0  0  0  0  0  0  0  0
    2.2461   -2.4277   -3.5040 C   0  0  0  0  0  0  0  0  0  0  0  0
    1.7937   -1.0080   -3.3181 C   0  0  0  0  0  0  0  0  0  0  0  0
   -0.9407    1.6079    4.7143 C   0  0  0  0  0  0  0  0  0  0  0  0
   -1.9773    3.6275    3.8004 C   0  0  0  0  0  0  0  0  0  0  0  0
    3.4113   -5.0434   -3.7401 C   0  0  0  0  0  0  0  0  0  0  0  0
    1.9203   -5.7781   -1.9082 C   0  0  0  0  0  0  0  0  0  0  0  0
  1  2  1  0  0  0  0
  1 10  1  0  0  0  0
  1 16  1  0  0  0  0
  2  4  2  0  0  0  0
  2  9  1  0  0  0  0
  4  6  1  0  0  0  0
  6  7  2  0  0  0  0
  7  8  1  0  0  0  0
  8  9  2  0  0  0  0
 10 11  2  0  0  0  0
 10 15  1  0  0  0  0
 11 12  1  0  0  0  0
 12 13  2  0  0  0  0
 13  3  1  0  0  0  0
 13 14  1  0  0  0  0
 14 15  2  0  0  0  0
 16 17  2  0  0  0  0
 16 21  1  0  0  0  0
 17 18  1  0  0  0  0
 18 19  2  0  0  0  0
 19  5  1  0  0  0  0
 19 20  1  0  0  0  0
 20 21  2  0  0  0  0
 22  3  1  0  0  0  0
 23  3  1  0  0  0  0
 24  5  1  0  0  0  0
 25  5  1  0  0  0  0
M  END
>  <CHROM.1>
-122.34879233,10.29870256,-168.43365145,-175.90423607,-163.30678867,0.60123508
0.33852073,-1.17528248,-3.08540486,-1.20310574,2.31295611

>  <Name>
1q8n_lig

>  <RI>
0

>  <Rbt.Current_Directory>
/home/itssahil/PROJECTS/Mol_Feturizer/New_Systems/rnas/1q8n

>  <Rbt.Executable>
rbdock ($Id: //depot/dev/client3/rdock/2013.1/src/exe/rbdock.cxx#4 $)

>  <Rbt.Library>
libRbt.so (2013.1, Build901 2013/11/27)

>  <Rbt.Parameter_File>
/export/apps/rDock/src/rDock_2013.1_src/data/scripts/dock_solv.prm

>  <Rbt.Receptor>
prm/pocket_docking_5.prm

>  <SCORE>
-52.103

>  <SCORE.INTER>
-52.7801

>  <SCORE.INTER.CONST>
1

>  <SCORE.INTER.POLAR>
0

>  <SCORE.INTER.ROT>
5

>  <SCORE.INTER.SOLV>
10.4682

>  <SCORE.INTER.VDW>
-45.6095

>  <SCORE.INTER.norm>
-2.1112

>  <SCORE.INTRA>
0.677112

>  <SCORE.INTRA.DIHEDRAL>
1.11827

>  <SCORE.INTRA.DIHEDRAL.0>
2.1627

>  <SCORE.INTRA.POLAR>
0

>  <SCORE.INTRA.POLAR.0>
0

>  <SCORE.INTRA.REPUL>
0

>  <SCORE.INTRA.REPUL.0>
0

>  <SCORE.INTRA.SOLV>
0.0286897

>  <SCORE.INTRA.SOLV.lig_0>
-5.95779

>  <SCORE.INTRA.VDW>
0.103633

>  <SCORE.INTRA.VDW.0>
3.81702

>  <SCORE.INTRA.norm>
0.0270845

>  <SCORE.RESTR>
0

>  <SCORE.RESTR.CAVITY>
0

>  <SCORE.RESTR.norm>
0

>  <SCORE.SYSTEM>
0

>  <SCORE.SYSTEM.CONST>
0

>  <SCORE.SYSTEM.DIHEDRAL>
0

>  <SCORE.SYSTEM.SOLV>
0

>  <SCORE.SYSTEM.norm>
0

>  <SCORE.heavy>
25

>  <SCORE.norm>
-2.08412

>  <RMSD>
0.503

$$$$
1q8n_lig
 OpenBabel11021811413D
libRbt.so/2013.1/901 2013/11/27
 25 27  0  0  0  0  0  0  0  0999 V2000
    0.6521    0.9557   -1.8336 C   0  0  0  0  0  0  0  0  0  0  0  0
    0.6287    2.1034   -2.9944 C   0  0  0  0  0  0  0  0  0  0  0  0
   -1.2228    2.4380    3.6170 N   0  0  0  0  0  0  0  0  0  0  0  0
    1.2814    3.2858   -2.8898 C   0  0  0  0  0  0  0  0  0  0  0  0
    2.4511   -4.6885   -2.7390 N   0  0  0  0  0  0  0  0  0  0  0  0
    1.2295    4.3034   -3.9648 C   0  0  0  0  0  0  0  0  0  0  0  0
    0.5160    4.0582   -5.0876 C   0  0  0  0  0  0  0  0  0  0  0  0
   -0.1821    2.8011   -5.2225 C   0  0  0  0  0  0  0  0  0  0  0  0
   -0.1291    1.8924   -4.2455 C   0  0  0  0  0  0  0  0  0  0  0  0
    0.1389    1.3568   -0.3383 C   0  0  0  0  0  0  0  0  0  0  0  0
    0.3145    0.5236    0.7083 C   0  0  0  0  0  0  0  0  0  0  0  0
   -0.1476    0.8733    2.0802 C   0  0  0  0  0  0  0  0  0  0  0  0
   -0.7651    2.0625    2.3120 C   0  0  0  0  0  0  0  0  0  0  0  0
   -0.9622    2.9848    1.1777 C   0  0  0  0  0  0  0  0  0  0  0  0
   -0.5417    2.6535   -0.0511 C   0  0  0  0  0  0  0  0  0  0  0  0
    1.1809   -0.5853   -2.1410 C   0  0  0  0  0  0  0  0  0  0  0  0
    1.0213   -1.6531   -1.0941 C   0  0  0  0  0  0  0  0  0  0  0  0
    1.4170   -2.9150   -1.2821 C   0  0  0  0  0  0  0  0  0  0  0  0
    2.0403   -3.3296   -2.5443 C   0  0  0  0  0  0  0  0  0  0  0  0
    2.2126   -2.4086   -3.5152 C   0  0  0  0  0  0  0  0  0  0  0  0
    1.7705   -0.9874   -3.3158 C   0  0  0  0  0  0  0  0  0  0  0  0
   -0.9601    1.6419    4.7770 C   0  0  0  0  0  0  0  0  0  0  0  0
   -1.9690    3.6446    3.7975 C   0  0  0  0  0  0  0  0  0  0  0  0
    1.9245   -5.7316   -1.9064 C   0  0  0  0  0  0  0  0  0  0  0  0
    3.3945   -5.0462   -3.7741 C   0  0  0  0  0  0  0  0  0  0  0  0
  1  2  1  0  0  0  0
  1 10  1  0  0  0  0
  1 16  1  0  0  0  0
  2  4  2  0  0  0  0
  2  9  1  0  0  0  0
  4  6  1  0  0  0  0
  6  7  2  0  0  0  0
  7  8  1  0  0  0  0
  8  9  2  0  0  0  0
 10 11  2  0  0  0  0
 10 15  1  0  0  0  0
 11 12  1  0  0  0  0
 12 13  2  0  0  0  0
 13  3  1  0  0  0  0
 13 14  1  0  0  0  0
 14 15  2  0  0  0  0
 16 17  2  0  0  0  0
 16 21  1  0  0  0  0
 17 18  1  0  0  0  0
 18 19  2  0  0  0  0
 19  5  1  0  0  0  0
 19 20  1  0  0  0  0
 20 21  2  0  0  0  0
 22  3  1  0  0  0  0
 23  3  1  0  0  0  0
 24  5  1  0  0  0  0
 25  5  1  0  0  0  0
M  END
>  <CHROM.1>
57.39499755,-170.11305760,-172.20717348,5.45358467,18.47786832,0.61093265
0.35801457,-1.16268082,-3.11188382,-1.20443943,2.29922515

>  <Name>
1q8n_lig

>  <RI>
0

>  <Rbt.Current_Directory>
/home/itssahil/PROJECTS/Mol_Feturizer/New_Systems/rnas/1q8n

>  <Rbt.Executable>
rbdock ($Id: //depot/dev/client3/rdock/2013.1/src/exe/rbdock.cxx#4 $)

>  <Rbt.Library>
libRbt.so (2013.1, Build901 2013/11/27)

>  <Rbt.Parameter_File>
/export/apps/rDock/src/rDock_2013.1_src/data/scripts/dock_solv.prm

>  <Rbt.Receptor>
prm/pocket_docking_6.prm

>  <SCORE>
-52.9831

>  <SCORE.INTER>
-53.8263

>  <SCORE.INTER.CONST>
1

>  <SCORE.INTER.POLAR>
0

>  <SCORE.INTER.ROT>
5

>  <SCORE.INTER.SOLV>
10.431

>  <SCORE.INTER.VDW>
-46.2946

>  <SCORE.INTER.norm>
-2.15305

>  <SCORE.INTRA>
0.843238

>  <SCORE.INTRA.DIHEDRAL>
1.39881

>  <SCORE.INTRA.DIHEDRAL.0>
2.1627

>  <SCORE.INTRA.POLAR>
0

>  <SCORE.INTRA.POLAR.0>
0

>  <SCORE.INTRA.REPUL>
0

>  <SCORE.INTRA.REPUL.0>
0

>  <SCORE.INTRA.SOLV>
0.0292928

>  <SCORE.INTRA.SOLV.lig_0>
-5.95779

>  <SCORE.INTRA.VDW>
0.129186

>  <SCORE.INTRA.VDW.0>
3.81702

>  <SCORE.INTRA.norm>
0.0337295

>  <SCORE.RESTR>
0

>  <SCORE.RESTR.CAVITY>
0

>  <SCORE.RESTR.norm>
0

>  <SCORE.SYSTEM>
0

>  <SCORE.SYSTEM.CONST>
0

>  <SCORE.SYSTEM.DIHEDRAL>
0

>  <SCORE.SYSTEM.SOLV>
0

>  <SCORE.SYSTEM.norm>
0

>  <SCORE.heavy>
25

>  <SCORE.norm>
-2.11932

>  <RMSD>
0.511

$$$$
1q8n_lig
 OpenBabel11021811403D
libRbt.so/2013.1/901 2013/11/27
 25 27  0  0  0  0  0  0  0  0999 V2000
    0.6445    0.9678   -1.8507 C   0  0  0  0  0  0  0  0  0  0  0  0
    0.6140    2.1083   -3.0185 C   0  0  0  0  0  0  0  0  0  0  0  0
   -1.2020    2.4442    3.6112 N   0  0  0  0  0  0  0  0  0  0  0  0
    1.2831    3.2831   -2.9336 C   0  0  0  0  0  0  0  0  0  0  0  0
    2.4433   -4.6804   -2.7313 N   0  0  0  0  0  0  0  0  0  0  0  0
    1.2242    4.2944   -4.0142 C   0  0  0  0  0  0  0  0  0  0  0  0
    0.4874    4.0509   -5.1223 C   0  0  0  0  0  0  0  0  0  0  0  0
   -0.2284    2.8017   -5.2362 C   0  0  0  0  0  0  0  0  0  0  0  0
   -0.1689    1.8986   -4.2542 C   0  0  0  0  0  0  0  0  0  0  0  0
    0.1379    1.3775   -0.3555 C   0  0  0  0  0  0  0  0  0  0  0  0
   -0.4763    2.5562   -0.1237 C   0  0  0  0  0  0  0  0  0  0  0  0
   -0.9454    2.9469    1.2347 C   0  0  0  0  0  0  0  0  0  0  0  0
   -0.7638    2.1074    2.2890 C   0  0  0  0  0  0  0  0  0  0  0  0
   -0.0957    0.8140    2.0506 C   0  0  0  0  0  0  0  0  0  0  0  0
    0.3219    0.4790    0.8218 C   0  0  0  0  0  0  0  0  0  0  0  0
    1.1736   -0.5745   -2.1511 C   0  0  0  0  0  0  0  0  0  0  0  0
    1.0056   -1.6398   -1.1030 C   0  0  0  0  0  0  0  0  0  0  0  0
    1.4010   -2.9025   -1.2855 C   0  0  0  0  0  0  0  0  0  0  0  0
    2.0327   -3.3206   -2.5425 C   0  0  0  0  0  0  0  0  0  0  0  0
    2.2128   -2.4018   -3.5141 C   0  0  0  0  0  0  0  0  0  0  0  0
    1.7709   -0.9798   -3.3209 C   0  0  0  0  0  0  0  0  0  0  0  0
   -0.9053    1.6244    4.7462 C   0  0  0  0  0  0  0  0  0  0  0  0
   -1.9626    3.6345    3.8351 C   0  0  0  0  0  0  0  0  0  0  0  0
    1.9143   -5.7203   -1.8963 C   0  0  0  0  0  0  0  0  0  0  0  0
    3.3890   -5.0422   -3.7629 C   0  0  0  0  0  0  0  0  0  0  0  0
  1  2  1  0  0  0  0
  1 10  1  0  0  0  0
  1 16  1  0  0  0  0
  2  4  2  0  0  0  0
  2  9  1  0  0  0  0
  4  6  1  0  0  0  0
  6  7  2  0  0  0  0
  7  8  1  0  0  0  0
  8  9  2  0  0  0  0
 10 11  2  0  0  0  0
 10 15  1  0  0  0  0
 11 12  1  0  0  0  0
 12 13  2  0  0  0  0
 13  3  1  0  0  0  0
 13 14  1  0  0  0  0
 14 15  2  0  0  0  0
 16 17  2  0  0  0  0
 16 21  1  0  0  0  0
 17 18  1  0  0  0  0
 18 19  2  0  0  0  0
 19  5  1  0  0  0  0
 19 20  1  0  0  0  0
 20 21  2  0  0  0  0
 22  3  1  0  0  0  0
 23  3  1  0  0  0  0
 24  5  1  0  0  0  0
 25  5  1  0  0  0  0
M  END
>  <CHROM.1>
58.48473195,9.78035445,-171.48276457,-174.04964491,18.20076525,0.61186706
0.35351937,-1.16850694,-3.13152125,-1.20683601,2.28304984

>  <Name>
1q8n_lig

>  <RI>
0

>  <Rbt.Current_Directory>
/home/itssahil/PROJECTS/Mol_Feturizer/New_Systems/rnas/1q8n

>  <Rbt.Executable>
rbdock ($Id: //depot/dev/client3/rdock/2013.1/src/exe/rbdock.cxx#4 $)

>  <Rbt.Library>
libRbt.so (2013.1, Build901 2013/11/27)

>  <Rbt.Parameter_File>
/export/apps/rDock/src/rDock_2013.1_src/data/scripts/dock_solv.prm

>  <Rbt.Receptor>
prm/pocket_docking_3.prm

>  <SCORE>
-53.1466

>  <SCORE.INTER>
-53.8771

>  <SCORE.INTER.CONST>
1

>  <SCORE.INTER.POLAR>
0

>  <SCORE.INTER.ROT>
5

>  <SCORE.INTER.SOLV>
10.4447

>  <SCORE.INTER.VDW>
-46.3329

>  <SCORE.INTER.norm>
-2.15508

>  <SCORE.INTRA>
0.730422

>  <SCORE.INTRA.DIHEDRAL>
1.38294

>  <SCORE.INTRA.DIHEDRAL.0>
2.1627

>  <SCORE.INTRA.POLAR>
0

>  <SCORE.INTRA.POLAR.0>
0

>  <SCORE.INTRA.REPUL>
0

>  <SCORE.INTRA.REPUL.0>
0

>  <SCORE.INTRA.SOLV>
0.028858

>  <SCORE.INTRA.SOLV.lig_0>
-5.95779

>  <SCORE.INTRA.VDW>
0.0245227

>  <SCORE.INTRA.VDW.0>
3.81702

>  <SCORE.INTRA.norm>
0.0292169

>  <SCORE.RESTR>
0

>  <SCORE.RESTR.CAVITY>
0

>  <SCORE.RESTR.norm>
0

>  <SCORE.SYSTEM>
0

>  <SCORE.SYSTEM.CONST>
0

>  <SCORE.SYSTEM.DIHEDRAL>
0

>  <SCORE.SYSTEM.SOLV>
0

>  <SCORE.SYSTEM.norm>
0

>  <SCORE.heavy>
25

>  <SCORE.norm>
-2.12587

>  <RMSD>
0.518

$$$$
1q8n_lig
 OpenBabel11021811403D
libRbt.so/2013.1/901 2013/11/27
 25 27  0  0  0  0  0  0  0  0999 V2000
    0.6545    0.9701   -1.8330 C   0  0  0  0  0  0  0  0  0  0  0  0
    0.6344    2.1159   -2.9958 C   0  0  0  0  0  0  0  0  0  0  0  0
   -1.2151    2.4293    3.6257 N   0  0  0  0  0  0  0  0  0  0  0  0
    1.3099    3.2864   -2.9036 C   0  0  0  0  0  0  0  0  0  0  0  0
    2.4348   -4.6812   -2.7308 N   0  0  0  0  0  0  0  0  0  0  0  0
    1.2603    4.3028   -3.9799 C   0  0  0  0  0  0  0  0  0  0  0  0
    0.5257    4.0684   -5.0914 C   0  0  0  0  0  0  0  0  0  0  0  0
   -0.1969    2.8239   -5.2130 C   0  0  0  0  0  0  0  0  0  0  0  0
   -0.1458    1.9162   -4.2349 C   0  0  0  0  0  0  0  0  0  0  0  0
    0.1415    1.3751   -0.3386 C   0  0  0  0  0  0  0  0  0  0  0  0
   -0.4871    2.5466   -0.1086 C   0  0  0  0  0  0  0  0  0  0  0  0
   -0.9622    2.9328    1.2490 C   0  0  0  0  0  0  0  0  0  0  0  0
   -0.7716    2.0965    2.3043 C   0  0  0  0  0  0  0  0  0  0  0  0
   -0.0876    0.8111    2.0677 C   0  0  0  0  0  0  0  0  0  0  0  0
    0.3352    0.4800    0.8397 C   0  0  0  0  0  0  0  0  0  0  0  0
    1.1796   -0.5727   -2.1374 C   0  0  0  0  0  0  0  0  0  0  0  0
    0.9879   -1.6456   -1.1012 C   0  0  0  0  0  0  0  0  0  0  0  0
    1.3791   -2.9091   -1.2876 C   0  0  0  0  0  0  0  0  0  0  0  0
    2.0291   -3.3205   -2.5374 C   0  0  0  0  0  0  0  0  0  0  0  0
    2.2306   -2.3949   -3.4982 C   0  0  0  0  0  0  0  0  0  0  0  0
    1.7938   -0.9719   -3.3005 C   0  0  0  0  0  0  0  0  0  0  0  0
   -1.9685    3.6142    3.9028 C   0  0  0  0  0  0  0  0  0  0  0  0
   -0.9104    1.5665    4.7249 C   0  0  0  0  0  0  0  0  0  0  0  0
    3.3807   -5.0172   -3.7559 C   0  0  0  0  0  0  0  0  0  0  0  0
    1.9126   -5.7447   -1.9027 C   0  0  0  0  0  0  0  0  0  0  0  0
  1  2  1  0  0  0  0
  1 10  1  0  0  0  0
  1 16  1  0  0  0  0
  2  4  2  0  0  0  0
  2  9  1  0  0  0  0
  4  6  1  0  0  0  0
  6  7  2  0  0  0  0
  7  8  1  0  0  0  0
  8  9  2  0  0  0  0
 10 11  2  0  0  0  0
 10 15  1  0  0  0  0
 11 12  1  0  0  0  0
 12 13  2  0  0  0  0
 13  3  1  0  0  0  0
 13 14  1  0  0  0  0
 14 15  2  0  0  0  0
 16 17  2  0  0  0  0
 16 21  1  0  0  0  0
 17 18  1  0  0  0  0
 18 19  2  0  0  0  0
 19  5  1  0  0  0  0
 19 20  1  0  0  0  0
 20 21  2  0  0  0  0
 22  3  1  0  0  0  0
 23  3  1  0  0  0  0
 24  5  1  0  0  0  0
 25  5  1  0  0  0  0
M  END
>  <CHROM.1>
58.65569762,10.76422726,-170.78548275,4.55539375,-162.64286996,0.61701880
0.35107527,-1.15296634,-3.11484252,-1.20614499,2.30380488

>  <Name>
1q8n_lig

>  <RI>
0

>  <Rbt.Current_Directory>
/home/itssahil/PROJECTS/Mol_Feturizer/New_Systems/rnas/1q8n

>  <Rbt.Executable>
rbdock ($Id: //depot/dev/client3/rdock/2013.1/src/exe/rbdock.cxx#4 $)

>  <Rbt.Library>
libRbt.so (2013.1, Build901 2013/11/27)

>  <Rbt.Parameter_File>
/export/apps/rDock/src/rDock_2013.1_src/data/scripts/dock_solv.prm

>  <Rbt.Receptor>
prm/pocket_docking_5.prm

>  <SCORE>
-52.9403

>  <SCORE.INTER>
-53.6599

>  <SCORE.INTER.CONST>
1

>  <SCORE.INTER.POLAR>
0

>  <SCORE.INTER.ROT>
5

>  <SCORE.INTER.SOLV>
10.4263

>  <SCORE.INTER.VDW>
-46.182

>  <SCORE.INTER.norm>
-2.14639

>  <SCORE.INTRA>
0.719506

>  <SCORE.INTRA.DIHEDRAL>
1.21654

>  <SCORE.INTRA.DIHEDRAL.0>
2.1627

>  <SCORE.INTRA.POLAR>
0

>  <SCORE.INTRA.POLAR.0>
0

>  <SCORE.INTRA.REPUL>
0

>  <SCORE.INTRA.REPUL.0>
0

>  <SCORE.INTRA.SOLV>
0.0279363

>  <SCORE.INTRA.SOLV.lig_0>
-5.95779

>  <SCORE.INTRA.VDW>
0.0972666

>  <SCORE.INTRA.VDW.0>
3.81702

>  <SCORE.INTRA.norm>
0.0287802

>  <SCORE.RESTR>
0

>  <SCORE.RESTR.CAVITY>
0

>  <SCORE.RESTR.norm>
0

>  <SCORE.SYSTEM>
0

>  <SCORE.SYSTEM.CONST>
0

>  <SCORE.SYSTEM.DIHEDRAL>
0

>  <SCORE.SYSTEM.SOLV>
0

>  <SCORE.SYSTEM.norm>
0

>  <SCORE.heavy>
25

>  <SCORE.norm>
-2.11761

>  <RMSD>
0.521

$$$$
1q8n_lig
 OpenBabel11021811403D
libRbt.so/2013.1/901 2013/11/27
 25 27  0  0  0  0  0  0  0  0999 V2000
    0.6538    0.9635   -1.8210 C   0  0  0  0  0  0  0  0  0  0  0  0
    0.6273    2.1041   -2.9889 C   0  0  0  0  0  0  0  0  0  0  0  0
   -1.2074    2.4411    3.6356 N   0  0  0  0  0  0  0  0  0  0  0  0
    1.2895    3.2823   -2.8983 C   0  0  0  0  0  0  0  0  0  0  0  0
    2.4542   -4.6851   -2.6956 N   0  0  0  0  0  0  0  0  0  0  0  0
    1.2345    4.2934   -3.9792 C   0  0  0  0  0  0  0  0  0  0  0  0
    0.5083    4.0462   -5.0935 C   0  0  0  0  0  0  0  0  0  0  0  0
   -0.2000    2.7933   -5.2135 C   0  0  0  0  0  0  0  0  0  0  0  0
   -0.1441    1.8905   -4.2312 C   0  0  0  0  0  0  0  0  0  0  0  0
    0.1429    1.3735   -0.3273 C   0  0  0  0  0  0  0  0  0  0  0  0
   -0.5391    2.5174   -0.1109 C   0  0  0  0  0  0  0  0  0  0  0  0
   -1.0132    2.9076    1.2458 C   0  0  0  0  0  0  0  0  0  0  0  0
   -0.7669    2.1034    2.3144 C   0  0  0  0  0  0  0  0  0  0  0  0
   -0.0242    0.8483    2.0929 C   0  0  0  0  0  0  0  0  0  0  0  0
    0.3969    0.5131    0.8653 C   0  0  0  0  0  0  0  0  0  0  0  0
    1.1834   -0.5789   -2.1198 C   0  0  0  0  0  0  0  0  0  0  0  0
    1.0164   -1.6429   -1.0702 C   0  0  0  0  0  0  0  0  0  0  0  0
    1.4122   -2.9058   -1.2513 C   0  0  0  0  0  0  0  0  0  0  0  0
    2.0432   -3.3252   -2.5082 C   0  0  0  0  0  0  0  0  0  0  0  0
    2.2224   -2.4076   -3.4811 C   0  0  0  0  0  0  0  0  0  0  0  0
    1.7801   -0.9855   -3.2894 C   0  0  0  0  0  0  0  0  0  0  0  0
   -1.9522    3.6317    3.9115 C   0  0  0  0  0  0  0  0  0  0  0  0
   -0.9084    1.5776    4.7357 C   0  0  0  0  0  0  0  0  0  0  0  0
    1.9360   -5.7222   -1.8505 C   0  0  0  0  0  0  0  0  0  0  0  0
    3.3895   -5.0497   -3.7356 C   0  0  0  0  0  0  0  0  0  0  0  0
  1  2  1  0  0  0  0
  1 10  1  0  0  0  0
  1 16  1  0  0  0  0
  2  4  2  0  0  0  0
  2  9  1  0  0  0  0
  4  6  1  0  0  0  0
  6  7  2  0  0  0  0
  7  8  1  0  0  0  0
  8  9  2  0  0  0  0
 10 11  2  0  0  0  0
 10 15  1  0  0  0  0
 11 12  1  0  0  0  0
 12 13  2  0  0  0  0
 13  3  1  0  0  0  0
 13 14  1  0  0  0  0
 14 15  2  0  0  0  0
 16 17  2  0  0  0  0
 16 21  1  0  0  0  0
 17 18  1  0  0  0  0
 18 19  2  0  0  0  0
 19  5  1  0  0  0  0
 19 20  1  0  0  0  0
 20 21  2  0  0  0  0
 22  3  1  0  0  0  0
 23  3  1  0  0  0  0
 24  5  1  0  0  0  0
 25  5  1  0  0  0  0
M  END
>  <CHROM.1>
58.04145090,13.61606063,-171.70686017,1.07114475,17.59230967,0.62091911,0.34757656
-1.13784241,-3.13192492,-1.20505534,2.28334767

>  <Name>
1q8n_lig

>  <RI>
0

>  <Rbt.Current_Directory>
/home/itssahil/PROJECTS/Mol_Feturizer/New_Systems/rnas/1q8n

>  <Rbt.Executable>
rbdock ($Id: //depot/dev/client3/rdock/2013.1/src/exe/rbdock.cxx#4 $)

>  <Rbt.Library>
libRbt.so (2013.1, Build901 2013/11/27)

>  <Rbt.Parameter_File>
/export/apps/rDock/src/rDock_2013.1_src/data/scripts/dock_solv.prm

>  <Rbt.Receptor>
prm/pocket_docking_3.prm

>  <SCORE>
-53.1237

>  <SCORE.INTER>
-53.7439

>  <SCORE.INTER.CONST>
1

>  <SCORE.INTER.POLAR>
0

>  <SCORE.INTER.ROT>
5

>  <SCORE.INTER.SOLV>
10.4644

>  <SCORE.INTER.VDW>
-46.2507

>  <SCORE.INTER.norm>
-2.14976

>  <SCORE.INTRA>
0.620221

>  <SCORE.INTRA.DIHEDRAL>
1.17007

>  <SCORE.INTRA.DIHEDRAL.0>
2.1627

>  <SCORE.INTRA.POLAR>
0

>  <SCORE.INTRA.POLAR.0>
0

>  <SCORE.INTRA.REPUL>
0

>  <SCORE.INTRA.REPUL.0>
0

>  <SCORE.INTRA.SOLV>
0.0274452

>  <SCORE.INTRA.SOLV.lig_0>
-5.95779

>  <SCORE.INTRA.VDW>
0.021465

>  <SCORE.INTRA.VDW.0>
3.81702

>  <SCORE.INTRA.norm>
0.0248088

>  <SCORE.RESTR>
0

>  <SCORE.RESTR.CAVITY>
0

>  <SCORE.RESTR.norm>
0

>  <SCORE.SYSTEM>
0

>  <SCORE.SYSTEM.CONST>
0

>  <SCORE.SYSTEM.DIHEDRAL>
0

>  <SCORE.SYSTEM.SOLV>
0

>  <SCORE.SYSTEM.norm>
0

>  <SCORE.heavy>
25

>  <SCORE.norm>
-2.12495

>  <RMSD>
0.523

$$$$
1q8n_lig
 OpenBabel11021811403D
libRbt.so/2013.1/901 2013/11/27
 25 27  0  0  0  0  0  0  0  0999 V2000
    0.5315    1.0904   -1.8855 C   0  0  0  0  0  0  0  0  0  0  0  0
    0.4859    2.1524   -3.1247 C   0  0  0  0  0  0  0  0  0  0  0  0
    2.5871   -4.3980   -2.9214 N   0  0  0  0  0  0  0  0  0  0  0  0
   -0.2396    1.9555   -4.2515 C   0  0  0  0  0  0  0  0  0  0  0  0
   -1.2039    2.3813    3.7034 N   0  0  0  0  0  0  0  0  0  0  0  0
   -0.2489    2.9425   -5.3559 C   0  0  0  0  0  0  0  0  0  0  0  0
    0.4812    4.0763   -5.2493 C   0  0  0  0  0  0  0  0  0  0  0  0
    1.2568    4.3092   -4.0534 C   0  0  0  0  0  0  0  0  0  0  0  0
    1.2584    3.4109   -3.0653 C   0  0  0  0  0  0  0  0  0  0  0  0
    1.0958   -0.4123   -2.1745 C   0  0  0  0  0  0  0  0  0  0  0  0
    1.8113   -0.6892   -3.2843 C   0  0  0  0  0  0  0  0  0  0  0  0
    2.3343   -2.0552   -3.5645 C   0  0  0  0  0  0  0  0  0  0  0  0
    2.1000   -3.0702   -2.6904 C   0  0  0  0  0  0  0  0  0  0  0  0
    1.3209   -2.7821   -1.4714 C   0  0  0  0  0  0  0  0  0  0  0  0
    0.8560   -1.5473   -1.2356 C   0  0  0  0  0  0  0  0  0  0  0  0
    0.0216    1.5040   -0.3630 C   0  0  0  0  0  0  0  0  0  0  0  0
    0.1619    0.5196    0.7652 C   0  0  0  0  0  0  0  0  0  0  0  0
   -0.2199    0.7936    2.0156 C   0  0  0  0  0  0  0  0  0  0  0  0
   -0.8079    2.0943    2.3565 C   0  0  0  0  0  0  0  0  0  0  0  0
   -0.9618    3.0119    1.3793 C   0  0  0  0  0  0  0  0  0  0  0  0
   -0.5349    2.7158   -0.0296 C   0  0  0  0  0  0  0  0  0  0  0  0
    3.5585   -4.6903   -3.9311 C   0  0  0  0  0  0  0  0  0  0  0  0
    2.1052   -5.4882   -2.1311 C   0  0  0  0  0  0  0  0  0  0  0  0
   -0.8486    1.4893    4.7694 C   0  0  0  0  0  0  0  0  0  0  0  0
   -1.9609    3.5698    4.0258 C   0  0  0  0  0  0  0  0  0  0  0  0
  1  2  1  0  0  0  0
  1 10  1  0  0  0  0
  1 16  1  0  0  0  0
  2  4  2  0  0  0  0
  2  9  1  0  0  0  0
  4  6  1  0  0  0  0
  6  7  2  0  0  0  0
  7  8  1  0  0  0  0
  8  9  2  0  0  0  0
 10 11  2  0  0  0  0
 10 15  1  0  0  0  0
 11 12  1  0  0  0  0
 12 13  2  0  0  0  0
 13  3  1  0  0  0  0
 13 14  1  0  0  0  0
 14 15  2  0  0  0  0
 16 17  2  0  0  0  0
 16 21  1  0  0  0  0
 17 18  1  0  0  0  0
 18 19  2  0  0  0  0
 19  5  1  0  0  0  0
 19 20  1  0  0  0  0
 20 21  2  0  0  0  0
 22  3  1  0  0  0  0
 23  3  1  0  0  0  0
 24  5  1  0  0  0  0
 25  5  1  0  0  0  0
M  END
>  <CHROM.1>
60.83187920,16.44960665,-176.21682689,12.50122582,9.51708901,0.60127038,0.46338552
-1.21416097,0.09815259,1.19029351,-0.88166167

>  <Name>
1q8n_lig

>  <RI>
0

>  <Rbt.Current_Directory>
/home/itssahil/PROJECTS/Mol_Feturizer/New_Systems/rnas/1q8n

>  <Rbt.Executable>
rbdock ($Id: //depot/dev/client3/rdock/2013.1/src/exe/rbdock.cxx#4 $)

>  <Rbt.Library>
libRbt.so (2013.1, Build901 2013/11/27)

>  <Rbt.Parameter_File>
/export/apps/rDock/src/rDock_2013.1_src/data/scripts/dock_solv.prm

>  <Rbt.Receptor>
prm/blind_docking_40.prm

>  <SCORE>
-53.7423

>  <SCORE.INTER>
-54.3296

>  <SCORE.INTER.CONST>
1

>  <SCORE.INTER.POLAR>
0

>  <SCORE.INTER.ROT>
5

>  <SCORE.INTER.SOLV>
10.3773

>  <SCORE.INTER.VDW>
-46.6122

>  <SCORE.INTER.norm>
-2.17318

>  <SCORE.INTRA>
0.58726

>  <SCORE.INTRA.DIHEDRAL>
0.946419

>  <SCORE.INTRA.DIHEDRAL.0>
2.1627

>  <SCORE.INTRA.POLAR>
0

>  <SCORE.INTRA.POLAR.0>
0

>  <SCORE.INTRA.REPUL>
0

>  <SCORE.INTRA.REPUL.0>
0

>  <SCORE.INTRA.SOLV>
0.0251446

>  <SCORE.INTRA.SOLV.lig_0>
-5.95779

>  <SCORE.INTRA.VDW>
0.101478

>  <SCORE.INTRA.VDW.0>
3.81702

>  <SCORE.INTRA.norm>
0.0234904

>  <SCORE.RESTR>
0

>  <SCORE.RESTR.CAVITY>
0

>  <SCORE.RESTR.norm>
0

>  <SCORE.SYSTEM>
0

>  <SCORE.SYSTEM.CONST>
0

>  <SCORE.SYSTEM.DIHEDRAL>
0

>  <SCORE.SYSTEM.SOLV>
0

>  <SCORE.SYSTEM.norm>
0

>  <SCORE.heavy>
25

>  <SCORE.norm>
-2.14969

>  <RMSD>
0.527

$$$$
1q8n_lig
 OpenBabel11021811403D
libRbt.so/2013.1/901 2013/11/27
 25 27  0  0  0  0  0  0  0  0999 V2000
    0.6569    0.9728   -1.8569 C   0  0  0  0  0  0  0  0  0  0  0  0
    0.6238    2.1163   -3.0218 C   0  0  0  0  0  0  0  0  0  0  0  0
   -1.1940    2.4310    3.6084 N   0  0  0  0  0  0  0  0  0  0  0  0
    1.2813    3.2970   -2.9291 C   0  0  0  0  0  0  0  0  0  0  0  0
    2.4657   -4.6696   -2.7538 N   0  0  0  0  0  0  0  0  0  0  0  0
    1.2203    4.3107   -4.0073 C   0  0  0  0  0  0  0  0  0  0  0  0
    0.4935    4.0634   -5.1211 C   0  0  0  0  0  0  0  0  0  0  0  0
   -0.2098    2.8079   -5.2433 C   0  0  0  0  0  0  0  0  0  0  0  0
   -0.1486    1.9027   -4.2635 C   0  0  0  0  0  0  0  0  0  0  0  0
    0.1495    1.3776   -0.3607 C   0  0  0  0  0  0  0  0  0  0  0  0
   -0.3869    2.5896   -0.1081 C   0  0  0  0  0  0  0  0  0  0  0  0
   -0.8554    2.9763    1.2516 C   0  0  0  0  0  0  0  0  0  0  0  0
   -0.7533    2.0991    2.2857 C   0  0  0  0  0  0  0  0  0  0  0  0
   -0.1709    0.7693    2.0244 C   0  0  0  0  0  0  0  0  0  0  0  0
    0.2475    0.4382    0.7948 C   0  0  0  0  0  0  0  0  0  0  0  0
    1.1895   -0.5674   -2.1613 C   0  0  0  0  0  0  0  0  0  0  0  0
    1.0082   -1.6399   -1.1228 C   0  0  0  0  0  0  0  0  0  0  0  0
    1.4057   -2.9015   -1.3089 C   0  0  0  0  0  0  0  0  0  0  0  0
    2.0530   -3.3110   -2.5608 C   0  0  0  0  0  0  0  0  0  0  0  0
    2.2454   -2.3857   -3.5237 C   0  0  0  0  0  0  0  0  0  0  0  0
    1.8014   -0.9648   -3.3263 C   0  0  0  0  0  0  0  0  0  0  0  0
   -1.9596    3.6080    3.8855 C   0  0  0  0  0  0  0  0  0  0  0  0
   -0.8739    1.5753    4.7086 C   0  0  0  0  0  0  0  0  0  0  0  0
    3.4297   -4.9981   -3.7643 C   0  0  0  0  0  0  0  0  0  0  0  0
    1.9325   -5.7385   -1.9399 C   0  0  0  0  0  0  0  0  0  0  0  0
  1  2  1  0  0  0  0
  1 10  1  0  0  0  0
  1 16  1  0  0  0  0
  2  4  2  0  0  0  0
  2  9  1  0  0  0  0
  4  6  1  0  0  0  0
  6  7  2  0  0  0  0
  7  8  1  0  0  0  0
  8  9  2  0  0  0  0
 10 11  2  0  0  0  0
 10 15  1  0  0  0  0
 11 12  1  0  0  0  0
 12 13  2  0  0  0  0
 13  3  1  0  0  0  0
 13 14  1  0  0  0  0
 14 15  2  0  0  0  0
 16 17  2  0  0  0  0
 16 21  1  0  0  0  0
 17 18  1  0  0  0  0
 18 19  2  0  0  0  0
 19  5  1  0  0  0  0
 19 20  1  0  0  0  0
 20 21  2  0  0  0  0
 22  3  1  0  0  0  0
 23  3  1  0  0  0  0
 24  5  1  0  0  0  0
 25  5  1  0  0  0  0
M  END
>  <CHROM.1>
57.91752883,5.32919342,-170.70650425,10.30239056,-161.37499016,0.62587566
0.35439549,-1.17599821,-3.12763274,-1.20581887,2.29072374

>  <Name>
1q8n_lig

>  <RI>
0

>  <Rbt.Current_Directory>
/home/itssahil/PROJECTS/Mol_Feturizer/New_Systems/rnas/1q8n

>  <Rbt.Executable>
rbdock ($Id: //depot/dev/client3/rdock/2013.1/src/exe/rbdock.cxx#4 $)

>  <Rbt.Library>
libRbt.so (2013.1, Build901 2013/11/27)

>  <Rbt.Parameter_File>
/export/apps/rDock/src/rDock_2013.1_src/data/scripts/dock_solv.prm

>  <Rbt.Receptor>
prm/pocket_docking_4.prm

>  <SCORE>
-52.9628

>  <SCORE.INTER>
-53.8524

>  <SCORE.INTER.CONST>
1

>  <SCORE.INTER.POLAR>
0

>  <SCORE.INTER.ROT>
5

>  <SCORE.INTER.SOLV>
10.4151

>  <SCORE.INTER.VDW>
-46.3066

>  <SCORE.INTER.norm>
-2.1541

>  <SCORE.INTRA>
0.889589

>  <SCORE.INTRA.DIHEDRAL>
1.71196

>  <SCORE.INTRA.DIHEDRAL.0>
2.1627

>  <SCORE.INTRA.POLAR>
0

>  <SCORE.INTRA.POLAR.0>
0

>  <SCORE.INTRA.REPUL>
0

>  <SCORE.INTRA.REPUL.0>
0

>  <SCORE.INTRA.SOLV>
0.0309342

>  <SCORE.INTRA.SOLV.lig_0>
-5.95779

>  <SCORE.INTRA.VDW>
0.0181429

>  <SCORE.INTRA.VDW.0>
3.81702

>  <SCORE.INTRA.norm>
0.0355836

>  <SCORE.RESTR>
0

>  <SCORE.RESTR.CAVITY>
0

>  <SCORE.RESTR.norm>
0

>  <SCORE.SYSTEM>
0

>  <SCORE.SYSTEM.CONST>
0

>  <SCORE.SYSTEM.DIHEDRAL>
0

>  <SCORE.SYSTEM.SOLV>
0

>  <SCORE.SYSTEM.norm>
0

>  <SCORE.heavy>
25

>  <SCORE.norm>
-2.11851

>  <RMSD>
0.533

$$$$
1q8n_lig
 OpenBabel11021811403D
libRbt.so/2013.1/901 2013/11/27
 25 27  0  0  0  0  0  0  0  0999 V2000
    0.6547    0.9675   -1.8490 C   0  0  0  0  0  0  0  0  0  0  0  0
    0.6260    2.1142   -3.0109 C   0  0  0  0  0  0  0  0  0  0  0  0
   -1.2126    2.4119    3.6143 N   0  0  0  0  0  0  0  0  0  0  0  0
    1.2886    3.2918   -2.9154 C   0  0  0  0  0  0  0  0  0  0  0  0
    2.4641   -4.6733   -2.7548 N   0  0  0  0  0  0  0  0  0  0  0  0
    1.2315    4.3086   -3.9909 C   0  0  0  0  0  0  0  0  0  0  0  0
    0.5031    4.0674   -5.1050 C   0  0  0  0  0  0  0  0  0  0  0  0
   -0.2056    2.8152   -5.2302 C   0  0  0  0  0  0  0  0  0  0  0  0
   -0.1479    1.9072   -4.2527 C   0  0  0  0  0  0  0  0  0  0  0  0
    0.1429    1.3686   -0.3533 C   0  0  0  0  0  0  0  0  0  0  0  0
   -0.3833    2.5841   -0.0966 C   0  0  0  0  0  0  0  0  0  0  0  0
   -0.8557    2.9675    1.2627 C   0  0  0  0  0  0  0  0  0  0  0  0
   -0.7677    2.0834    2.2923 C   0  0  0  0  0  0  0  0  0  0  0  0
   -0.1966    0.7496    2.0264 C   0  0  0  0  0  0  0  0  0  0  0  0
    0.2255    0.4216    0.7972 C   0  0  0  0  0  0  0  0  0  0  0  0
    1.1873   -0.5722   -2.1560 C   0  0  0  0  0  0  0  0  0  0  0  0
    1.0102   -1.6453   -1.1173 C   0  0  0  0  0  0  0  0  0  0  0  0
    1.4079   -2.9065   -1.3055 C   0  0  0  0  0  0  0  0  0  0  0  0
    2.0512   -3.3150   -2.5597 C   0  0  0  0  0  0  0  0  0  0  0  0
    2.2398   -2.3891   -3.5228 C   0  0  0  0  0  0  0  0  0  0  0  0
    1.7954   -0.9687   -3.3232 C   0  0  0  0  0  0  0  0  0  0  0  0
   -0.9163    1.5881    4.7466 C   0  0  0  0  0  0  0  0  0  0  0  0
   -1.9796    3.5974    3.8410 C   0  0  0  0  0  0  0  0  0  0  0  0
    3.4237   -5.0008   -3.7698 C   0  0  0  0  0  0  0  0  0  0  0  0
    1.9355   -5.7427   -1.9385 C   0  0  0  0  0  0  0  0  0  0  0  0
  1  2  1  0  0  0  0
  1 10  1  0  0  0  0
  1 16  1  0  0  0  0
  2  4  2  0  0  0  0
  2  9  1  0  0  0  0
  4  6  1  0  0  0  0
  6  7  2  0  0  0  0
  7  8  1  0  0  0  0
  8  9  2  0  0  0  0
 10 11  2  0  0  0  0
 10 15  1  0  0  0  0
 11 12  1  0  0  0  0
 12 13  2  0  0  0  0
 13  3  1  0  0  0  0
 13 14  1  0  0  0  0
 14 15  2  0  0  0  0
 16 17  2  0  0  0  0
 16 21  1  0  0  0  0
 17 18  1  0  0  0  0
 18 19  2  0  0  0  0
 19  5  1  0  0  0  0
 19 20  1  0  0  0  0
 20 21  2  0  0  0  0
 22  3  1  0  0  0  0
 23  3  1  0  0  0  0
 24  5  1  0  0  0  0
 25  5  1  0  0  0  0
M  END
>  <CHROM.1>
58.21076210,4.77215366,-171.10948188,-168.87830792,-161.45049110,0.62037651
0.34935946,-1.17048075,-3.11904323,-1.20398633,2.30049000

>  <Name>
1q8n_lig

>  <RI>
0

>  <Rbt.Current_Directory>
/home/itssahil/PROJECTS/Mol_Feturizer/New_Systems/rnas/1q8n

>  <Rbt.Executable>
rbdock ($Id: //depot/dev/client3/rdock/2013.1/src/exe/rbdock.cxx#4 $)

>  <Rbt.Library>
libRbt.so (2013.1, Build901 2013/11/27)

>  <Rbt.Parameter_File>
/export/apps/rDock/src/rDock_2013.1_src/data/scripts/dock_solv.prm

>  <Rbt.Receptor>
prm/pocket_docking_3.prm

>  <SCORE>
-52.9891

>  <SCORE.INTER>
-53.9076

>  <SCORE.INTER.CONST>
1

>  <SCORE.INTER.POLAR>
0

>  <SCORE.INTER.ROT>
5

>  <SCORE.INTER.SOLV>
10.3898

>  <SCORE.INTER.VDW>
-46.335

>  <SCORE.INTER.norm>
-2.15631

>  <SCORE.INTRA>
0.918486

>  <SCORE.INTRA.DIHEDRAL>
1.76865

>  <SCORE.INTRA.DIHEDRAL.0>
2.1627

>  <SCORE.INTRA.POLAR>
0

>  <SCORE.INTRA.POLAR.0>
0

>  <SCORE.INTRA.REPUL>
0

>  <SCORE.INTRA.REPUL.0>
0

>  <SCORE.INTRA.SOLV>
0.0310562

>  <SCORE.INTRA.SOLV.lig_0>
-5.95779

>  <SCORE.INTRA.VDW>
0.0186344

>  <SCORE.INTRA.VDW.0>
3.81702

>  <SCORE.INTRA.norm>
0.0367395

>  <SCORE.RESTR>
0

>  <SCORE.RESTR.CAVITY>
0

>  <SCORE.RESTR.norm>
0

>  <SCORE.SYSTEM>
0

>  <SCORE.SYSTEM.CONST>
0

>  <SCORE.SYSTEM.DIHEDRAL>
0

>  <SCORE.SYSTEM.SOLV>
0

>  <SCORE.SYSTEM.norm>
0

>  <SCORE.heavy>
25

>  <SCORE.norm>
-2.11957

>  <RMSD>
0.534

$$$$
1q8n_lig
 OpenBabel11021811403D
libRbt.so/2013.1/901 2013/11/27
 25 27  0  0  0  0  0  0  0  0999 V2000
    0.6517    0.9634   -1.8574 C   0  0  0  0  0  0  0  0  0  0  0  0
    0.6251    2.1099   -3.0195 C   0  0  0  0  0  0  0  0  0  0  0  0
   -1.2100    2.4132    3.6064 N   0  0  0  0  0  0  0  0  0  0  0  0
    1.2952    3.2835   -2.9272 C   0  0  0  0  0  0  0  0  0  0  0  0
    2.4462   -4.6820   -2.7639 N   0  0  0  0  0  0  0  0  0  0  0  0
    1.2397    4.3003   -4.0028 C   0  0  0  0  0  0  0  0  0  0  0  0
    0.5051    4.0632   -5.1137 C   0  0  0  0  0  0  0  0  0  0  0  0
   -0.2118    2.8153   -5.2355 C   0  0  0  0  0  0  0  0  0  0  0  0
   -0.1554    1.9073   -4.2580 C   0  0  0  0  0  0  0  0  0  0  0  0
    0.1414    1.3660   -0.3615 C   0  0  0  0  0  0  0  0  0  0  0  0
   -0.3744    2.5856   -0.1031 C   0  0  0  0  0  0  0  0  0  0  0  0
   -0.8452    2.9704    1.2564 C   0  0  0  0  0  0  0  0  0  0  0  0
   -0.7663    2.0835    2.2843 C   0  0  0  0  0  0  0  0  0  0  0  0
   -0.2066    0.7453    2.0165 C   0  0  0  0  0  0  0  0  0  0  0  0
    0.2143    0.4160    0.7872 C   0  0  0  0  0  0  0  0  0  0  0  0
    1.1807   -0.5776   -2.1642 C   0  0  0  0  0  0  0  0  0  0  0  0
    0.9907   -1.6528   -1.1301 C   0  0  0  0  0  0  0  0  0  0  0  0
    1.3850   -2.9151   -1.3184 C   0  0  0  0  0  0  0  0  0  0  0  0
    2.0371   -3.3227   -2.5684 C   0  0  0  0  0  0  0  0  0  0  0  0
    2.2373   -2.3949   -3.5273 C   0  0  0  0  0  0  0  0  0  0  0  0
    1.7969   -0.9732   -3.3275 C   0  0  0  0  0  0  0  0  0  0  0  0
   -1.9569    3.6014    3.8874 C   0  0  0  0  0  0  0  0  0  0  0  0
   -0.9123    1.5440    4.7023 C   0  0  0  0  0  0  0  0  0  0  0  0
    3.3950   -5.0137   -3.7876 C   0  0  0  0  0  0  0  0  0  0  0  0
    1.9245   -5.7485   -1.9393 C   0  0  0  0  0  0  0  0  0  0  0  0
  1  2  1  0  0  0  0
  1 10  1  0  0  0  0
  1 16  1  0  0  0  0
  2  4  2  0  0  0  0
  2  9  1  0  0  0  0
  4  6  1  0  0  0  0
  6  7  2  0  0  0  0
  7  8  1  0  0  0  0
  8  9  2  0  0  0  0
 10 11  2  0  0  0  0
 10 15  1  0  0  0  0
 11 12  1  0  0  0  0
 12 13  2  0  0  0  0
 13  3  1  0  0  0  0
 13 14  1  0  0  0  0
 14 15  2  0  0  0  0
 16 17  2  0  0  0  0
 16 21  1  0  0  0  0
 17 18  1  0  0  0  0
 18 19  2  0  0  0  0
 19  5  1  0  0  0  0
 19 20  1  0  0  0  0
 20 21  2  0  0  0  0
 22  3  1  0  0  0  0
 23  3  1  0  0  0  0
 24  5  1  0  0  0  0
 25  5  1  0  0  0  0
M  END
>  <CHROM.1>
58.52301032,4.36439439,-170.57033734,10.35707951,-162.56497166,0.61657250
0.34342596,-1.17814956,-3.11472828,-1.20636944,2.30539955

>  <Name>
1q8n_lig

>  <RI>
0

>  <Rbt.Current_Directory>
/home/itssahil/PROJECTS/Mol_Feturizer/New_Systems/rnas/1q8n

>  <Rbt.Executable>
rbdock ($Id: //depot/dev/client3/rdock/2013.1/src/exe/rbdock.cxx#4 $)

>  <Rbt.Library>
libRbt.so (2013.1, Build901 2013/11/27)

>  <Rbt.Parameter_File>
/export/apps/rDock/src/rDock_2013.1_src/data/scripts/dock_solv.prm

>  <Rbt.Receptor>
prm/pocket_docking_3.prm

>  <SCORE>
-52.921

>  <SCORE.INTER>
-53.7984

>  <SCORE.INTER.CONST>
1

>  <SCORE.INTER.POLAR>
0

>  <SCORE.INTER.ROT>
5

>  <SCORE.INTER.SOLV>
10.3895

>  <SCORE.INTER.VDW>
-46.2621

>  <SCORE.INTER.norm>
-2.15194

>  <SCORE.INTRA>
0.877391

>  <SCORE.INTRA.DIHEDRAL>
1.55993

>  <SCORE.INTRA.DIHEDRAL.0>
2.1627

>  <SCORE.INTRA.POLAR>
0

>  <SCORE.INTRA.POLAR.0>
0

>  <SCORE.INTRA.REPUL>
0

>  <SCORE.INTRA.REPUL.0>
0

>  <SCORE.INTRA.SOLV>
0.0307564

>  <SCORE.INTRA.SOLV.lig_0>
-5.95779

>  <SCORE.INTRA.VDW>
0.0820502

>  <SCORE.INTRA.VDW.0>
3.81702

>  <SCORE.INTRA.norm>
0.0350956

>  <SCORE.RESTR>
0

>  <SCORE.RESTR.CAVITY>
0

>  <SCORE.RESTR.norm>
0

>  <SCORE.SYSTEM>
0

>  <SCORE.SYSTEM.CONST>
0

>  <SCORE.SYSTEM.DIHEDRAL>
0

>  <SCORE.SYSTEM.SOLV>
0

>  <SCORE.SYSTEM.norm>
0

>  <SCORE.heavy>
25

>  <SCORE.norm>
-2.11684

>  <RMSD>
0.539

$$$$
1q8n_lig
 OpenBabel11021811403D
libRbt.so/2013.1/901 2013/11/27
 25 27  0  0  0  0  0  0  0  0999 V2000
    0.6500    0.9545   -1.8239 C   0  0  0  0  0  0  0  0  0  0  0  0
    0.6237    2.0953   -2.9915 C   0  0  0  0  0  0  0  0  0  0  0  0
   -1.2068    2.4323    3.6341 N   0  0  0  0  0  0  0  0  0  0  0  0
    1.2871    3.2729   -2.9010 C   0  0  0  0  0  0  0  0  0  0  0  0
    2.4457   -4.6954   -2.6998 N   0  0  0  0  0  0  0  0  0  0  0  0
    1.2322    4.2844   -3.9817 C   0  0  0  0  0  0  0  0  0  0  0  0
    0.5051    4.0381   -5.0955 C   0  0  0  0  0  0  0  0  0  0  0  0
   -0.2045    2.7859   -5.2153 C   0  0  0  0  0  0  0  0  0  0  0  0
   -0.1487    1.8828   -4.2333 C   0  0  0  0  0  0  0  0  0  0  0  0
    0.1409    1.3646   -0.3297 C   0  0  0  0  0  0  0  0  0  0  0  0
   -0.4148    2.5698   -0.0864 C   0  0  0  0  0  0  0  0  0  0  0  0
   -0.8852    2.9613    1.2713 C   0  0  0  0  0  0  0  0  0  0  0  0
   -0.7650    2.0956    2.3131 C   0  0  0  0  0  0  0  0  0  0  0  0
   -0.1614    0.7732    2.0620 C   0  0  0  0  0  0  0  0  0  0  0  0
    0.2584    0.4378    0.8341 C   0  0  0  0  0  0  0  0  0  0  0  0
    1.1775   -0.5885   -2.1235 C   0  0  0  0  0  0  0  0  0  0  0  0
    1.0252   -1.6487   -1.0679 C   0  0  0  0  0  0  0  0  0  0  0  0
    1.4202   -2.9118   -1.2492 C   0  0  0  0  0  0  0  0  0  0  0  0
    2.0356   -3.3353   -2.5124 C   0  0  0  0  0  0  0  0  0  0  0  0
    2.2012   -2.4212   -3.4910 C   0  0  0  0  0  0  0  0  0  0  0  0
    1.7597   -0.9989   -3.2991 C   0  0  0  0  0  0  0  0  0  0  0  0
   -0.9190    1.6089    4.7689 C   0  0  0  0  0  0  0  0  0  0  0  0
   -1.9619    3.6261    3.8571 C   0  0  0  0  0  0  0  0  0  0  0  0
    1.9104   -5.7353   -1.8690 C   0  0  0  0  0  0  0  0  0  0  0  0
    3.3974   -5.0575   -3.7259 C   0  0  0  0  0  0  0  0  0  0  0  0
  1  2  1  0  0  0  0
  1 10  1  0  0  0  0
  1 16  1  0  0  0  0
  2  4  2  0  0  0  0
  2  9  1  0  0  0  0
  4  6  1  0  0  0  0
  6  7  2  0  0  0  0
  7  8  1  0  0  0  0
  8  9  2  0  0  0  0
 10 11  2  0  0  0  0
 10 15  1  0  0  0  0
 11 12  1  0  0  0  0
 12 13  2  0  0  0  0
 13  3  1  0  0  0  0
 13 14  1  0  0  0  0
 14 15  2  0  0  0  0
 16 17  2  0  0  0  0
 16 21  1  0  0  0  0
 17 18  1  0  0  0  0
 18 19  2  0  0  0  0
 19  5  1  0  0  0  0
 19 20  1  0  0  0  0
 20 21  2  0  0  0  0
 22  3  1  0  0  0  0
 23  3  1  0  0  0  0
 24  5  1  0  0  0  0
 25  5  1  0  0  0  0
M  END
>  <CHROM.1>
58.02410556,6.60405426,-172.43716302,-171.13103995,19.38146850,0.61550606
0.34006200,-1.14159707,-3.12091677,-1.20676143,2.29328974

>  <Name>
1q8n_lig

>  <RI>
0

>  <Rbt.Current_Directory>
/home/itssahil/PROJECTS/Mol_Feturizer/New_Systems/rnas/1q8n

>  <Rbt.Executable>
rbdock ($Id: //depot/dev/client3/rdock/2013.1/src/exe/rbdock.cxx#4 $)

>  <Rbt.Library>
libRbt.so (2013.1, Build901 2013/11/27)

>  <Rbt.Parameter_File>
/export/apps/rDock/src/rDock_2013.1_src/data/scripts/dock_solv.prm

>  <Rbt.Receptor>
prm/blind_docking_80.prm

>  <SCORE>
-53.1874

>  <SCORE.INTER>
-54.0406

>  <SCORE.INTER.CONST>
1

>  <SCORE.INTER.POLAR>
0

>  <SCORE.INTER.ROT>
5

>  <SCORE.INTER.SOLV>
10.413

>  <SCORE.INTER.VDW>
-46.4314

>  <SCORE.INTER.norm>
-2.16163

>  <SCORE.INTRA>
0.853287

>  <SCORE.INTRA.DIHEDRAL>
1.71059

>  <SCORE.INTRA.DIHEDRAL.0>
2.1627

>  <SCORE.INTRA.POLAR>
0

>  <SCORE.INTRA.POLAR.0>
0

>  <SCORE.INTRA.REPUL>
0

>  <SCORE.INTRA.REPUL.0>
0

>  <SCORE.INTRA.SOLV>
0.03101

>  <SCORE.INTRA.SOLV.lig_0>
-5.95779

>  <SCORE.INTRA.VDW>
-0.0175135

>  <SCORE.INTRA.VDW.0>
3.81702

>  <SCORE.INTRA.norm>
0.0341315

>  <SCORE.RESTR>
0

>  <SCORE.RESTR.CAVITY>
0

>  <SCORE.RESTR.norm>
0

>  <SCORE.SYSTEM>
0

>  <SCORE.SYSTEM.CONST>
0

>  <SCORE.SYSTEM.DIHEDRAL>
0

>  <SCORE.SYSTEM.SOLV>
0

>  <SCORE.SYSTEM.norm>
0

>  <SCORE.heavy>
25

>  <SCORE.norm>
-2.12749

>  <RMSD>
0.540

$$$$
1q8n_lig
 OpenBabel11021811403D
libRbt.so/2013.1/901 2013/11/27
 25 27  0  0  0  0  0  0  0  0999 V2000
    0.6480    0.9506   -1.7917 C   0  0  0  0  0  0  0  0  0  0  0  0
    0.6237    2.0938   -2.9571 C   0  0  0  0  0  0  0  0  0  0  0  0
   -1.2161    2.4181    3.6666 N   0  0  0  0  0  0  0  0  0  0  0  0
    1.2936    3.2676   -2.8668 C   0  0  0  0  0  0  0  0  0  0  0  0
    2.4458   -4.6974   -2.6753 N   0  0  0  0  0  0  0  0  0  0  0  0
    1.2403    4.2814   -3.9454 C   0  0  0  0  0  0  0  0  0  0  0  0
    0.5079    4.0411   -5.0571 C   0  0  0  0  0  0  0  0  0  0  0  0
   -0.2087    2.7929   -5.1767 C   0  0  0  0  0  0  0  0  0  0  0  0
   -0.1543    1.8876   -4.1965 C   0  0  0  0  0  0  0  0  0  0  0  0
    0.1364    1.3579   -0.2975 C   0  0  0  0  0  0  0  0  0  0  0  0
   -0.5132    2.5189   -0.0729 C   0  0  0  0  0  0  0  0  0  0  0  0
   -0.9873    2.9070    1.2844 C   0  0  0  0  0  0  0  0  0  0  0  0
   -0.7743    2.0831    2.3452 C   0  0  0  0  0  0  0  0  0  0  0  0
   -0.0673    0.8092    2.1147 C   0  0  0  0  0  0  0  0  0  0  0  0
    0.3544    0.4762    0.8867 C   0  0  0  0  0  0  0  0  0  0  0  0
    1.1760   -0.5917   -2.0935 C   0  0  0  0  0  0  0  0  0  0  0  0
    1.0263   -1.6528   -1.0384 C   0  0  0  0  0  0  0  0  0  0  0  0
    1.4218   -2.9155   -1.2214 C   0  0  0  0  0  0  0  0  0  0  0  0
    2.0352   -3.3376   -2.4860 C   0  0  0  0  0  0  0  0  0  0  0  0
    2.1984   -2.4228   -3.4642 C   0  0  0  0  0  0  0  0  0  0  0  0
    1.7563   -1.0008   -3.2704 C   0  0  0  0  0  0  0  0  0  0  0  0
   -0.9325    1.5907    4.7995 C   0  0  0  0  0  0  0  0  0  0  0  0
   -1.9670    3.6142    3.8920 C   0  0  0  0  0  0  0  0  0  0  0  0
    1.9121   -5.7384   -1.8447 C   0  0  0  0  0  0  0  0  0  0  0  0
    3.3964   -5.0579   -3.7028 C   0  0  0  0  0  0  0  0  0  0  0  0
  1  2  1  0  0  0  0
  1 10  1  0  0  0  0
  1 16  1  0  0  0  0
  2  4  2  0  0  0  0
  2  9  1  0  0  0  0
  4  6  1  0  0  0  0
  6  7  2  0  0  0  0
  7  8  1  0  0  0  0
  8  9  2  0  0  0  0
 10 11  2  0  0  0  0
 10 15  1  0  0  0  0
 11 12  1  0  0  0  0
 12 13  2  0  0  0  0
 13  3  1  0  0  0  0
 13 14  1  0  0  0  0
 14 15  2  0  0  0  0
 16 17  2  0  0  0  0
 16 21  1  0  0  0  0
 17 18  1  0  0  0  0
 18 19  2  0  0  0  0
 19  5  1  0  0  0  0
 19 20  1  0  0  0  0
 20 21  2  0  0  0  0
 22  3  1  0  0  0  0
 23  3  1  0  0  0  0
 24  5  1  0  0  0  0
 25  5  1  0  0  0  0
M  END
>  <CHROM.1>
58.44893753,11.82840861,-172.65110204,-176.55153209,19.41512573,0.61341687
0.33532845,-1.11022594,-3.12606161,-1.20507138,2.28971257

>  <Name>
1q8n_lig

>  <RI>
0

>  <Rbt.Current_Directory>
/home/itssahil/PROJECTS/Mol_Feturizer/New_Systems/rnas/1q8n

>  <Rbt.Executable>
rbdock ($Id: //depot/dev/client3/rdock/2013.1/src/exe/rbdock.cxx#4 $)

>  <Rbt.Library>
libRbt.so (2013.1, Build901 2013/11/27)

>  <Rbt.Parameter_File>
/export/apps/rDock/src/rDock_2013.1_src/data/scripts/dock_solv.prm

>  <Rbt.Receptor>
prm/pocket_docking_4.prm

>  <SCORE>
-53.1508

>  <SCORE.INTER>
-53.8705

>  <SCORE.INTER.CONST>
1

>  <SCORE.INTER.POLAR>
0

>  <SCORE.INTER.ROT>
5

>  <SCORE.INTER.SOLV>
10.4296

>  <SCORE.INTER.VDW>
-46.3235

>  <SCORE.INTER.norm>
-2.15482

>  <SCORE.INTRA>
0.719626

>  <SCORE.INTRA.DIHEDRAL>
1.45695

>  <SCORE.INTRA.DIHEDRAL.0>
2.1627

>  <SCORE.INTRA.POLAR>
0

>  <SCORE.INTRA.POLAR.0>
0

>  <SCORE.INTRA.REPUL>
0

>  <SCORE.INTRA.REPUL.0>
0

>  <SCORE.INTRA.SOLV>
0.0283958

>  <SCORE.INTRA.SOLV.lig_0>
-5.95779

>  <SCORE.INTRA.VDW>
-0.0230453

>  <SCORE.INTRA.VDW.0>
3.81702

>  <SCORE.INTRA.norm>
0.0287851

>  <SCORE.RESTR>
8.6076e-05

>  <SCORE.RESTR.CAVITY>
8.6076e-05

>  <SCORE.RESTR.norm>
3.44304e-06

>  <SCORE.SYSTEM>
0

>  <SCORE.SYSTEM.CONST>
0

>  <SCORE.SYSTEM.DIHEDRAL>
0

>  <SCORE.SYSTEM.SOLV>
0

>  <SCORE.SYSTEM.norm>
0

>  <SCORE.heavy>
25

>  <SCORE.norm>
-2.12603

>  <RMSD>
0.542

$$$$
1q8n_lig
 OpenBabel11021811413D
libRbt.so/2013.1/901 2013/11/27
 25 27  0  0  0  0  0  0  0  0999 V2000
    0.5788    0.8779   -1.8101 C   0  0  0  0  0  0  0  0  0  0  0  0
    0.5209    2.0052   -2.9897 C   0  0  0  0  0  0  0  0  0  0  0  0
   -1.2173    2.4319    3.6471 N   0  0  0  0  0  0  0  0  0  0  0  0
   -0.1458    1.8329   -4.1562 C   0  0  0  0  0  0  0  0  0  0  0  0
    2.4266   -4.7602   -2.6524 N   0  0  0  0  0  0  0  0  0  0  0  0
   -0.1685    2.8796   -5.2039 C   0  0  0  0  0  0  0  0  0  0  0  0
    0.4888    4.0448   -5.0032 C   0  0  0  0  0  0  0  0  0  0  0  0
    1.2004    4.2519   -3.7636 C   0  0  0  0  0  0  0  0  0  0  0  0
    1.2150    3.2997   -2.8275 C   0  0  0  0  0  0  0  0  0  0  0  0
    0.0877    1.2988   -0.3128 C   0  0  0  0  0  0  0  0  0  0  0  0
    0.3902    0.5405    0.7614 C   0  0  0  0  0  0  0  0  0  0  0  0
   -0.0497    0.9093    2.1356 C   0  0  0  0  0  0  0  0  0  0  0  0
   -0.7764    2.0403    2.3410 C   0  0  0  0  0  0  0  0  0  0  0  0
   -1.1129    2.8807    1.1763 C   0  0  0  0  0  0  0  0  0  0  0  0
   -0.7105    2.5330   -0.0540 C   0  0  0  0  0  0  0  0  0  0  0  0
    1.1201   -0.6619   -2.1008 C   0  0  0  0  0  0  0  0  0  0  0  0
    0.9849   -1.7152   -1.0359 C   0  0  0  0  0  0  0  0  0  0  0  0
    1.3916   -2.9756   -1.2097 C   0  0  0  0  0  0  0  0  0  0  0  0
    2.0038   -3.4029   -2.4732 C   0  0  0  0  0  0  0  0  0  0  0  0
    2.1543   -2.4950   -3.4599 C   0  0  0  0  0  0  0  0  0  0  0  0
    1.6995   -1.0757   -3.2766 C   0  0  0  0  0  0  0  0  0  0  0  0
   -1.9724    3.6268    3.8720 C   0  0  0  0  0  0  0  0  0  0  0  0
   -0.9082    1.6206    4.7835 C   0  0  0  0  0  0  0  0  0  0  0  0
    1.8944   -5.8013   -1.8209 C   0  0  0  0  0  0  0  0  0  0  0  0
    3.3882   -5.1183   -3.6705 C   0  0  0  0  0  0  0  0  0  0  0  0
  1  2  1  0  0  0  0
  1 10  1  0  0  0  0
  1 16  1  0  0  0  0
  2  4  2  0  0  0  0
  2  9  1  0  0  0  0
  4  6  1  0  0  0  0
  6  7  2  0  0  0  0
  7  8  1  0  0  0  0
  8  9  2  0  0  0  0
 10 11  2  0  0  0  0
 10 15  1  0  0  0  0
 11 12  1  0  0  0  0
 12 13  2  0  0  0  0
 13  3  1  0  0  0  0
 13 14  1  0  0  0  0
 14 15  2  0  0  0  0
 16 17  2  0  0  0  0
 16 21  1  0  0  0  0
 17 18  1  0  0  0  0
 18 19  2  0  0  0  0
 19  5  1  0  0  0  0
 19 20  1  0  0  0  0
 20 21  2  0  0  0  0
 22  3  1  0  0  0  0
 23  3  1  0  0  0  0
 24  5  1  0  0  0  0
 25  5  1  0  0  0  0
M  END
>  <CHROM.1>
-124.27071655,-164.47004349,-171.85691230,179.44748278,20.14911258,0.57983514
0.31176500,-1.10738385,-3.10681221,-1.20679446,2.28215177

>  <Name>
1q8n_lig

>  <RI>
0

>  <Rbt.Current_Directory>
/home/itssahil/PROJECTS/Mol_Feturizer/New_Systems/rnas/1q8n

>  <Rbt.Executable>
rbdock ($Id: //depot/dev/client3/rdock/2013.1/src/exe/rbdock.cxx#4 $)

>  <Rbt.Library>
libRbt.so (2013.1, Build901 2013/11/27)

>  <Rbt.Parameter_File>
/export/apps/rDock/src/rDock_2013.1_src/data/scripts/dock_solv.prm

>  <Rbt.Receptor>
prm/pocket_docking_7.prm

>  <SCORE>
-52.3295

>  <SCORE.INTER>
-53.0657

>  <SCORE.INTER.CONST>
1

>  <SCORE.INTER.POLAR>
0

>  <SCORE.INTER.ROT>
5

>  <SCORE.INTER.SOLV>
10.5604

>  <SCORE.INTER.VDW>
-45.8306

>  <SCORE.INTER.norm>
-2.12263

>  <SCORE.INTRA>
0.736167

>  <SCORE.INTRA.DIHEDRAL>
1.51741

>  <SCORE.INTRA.DIHEDRAL.0>
2.1627

>  <SCORE.INTRA.POLAR>
0

>  <SCORE.INTRA.POLAR.0>
0

>  <SCORE.INTRA.REPUL>
0

>  <SCORE.INTRA.REPUL.0>
0

>  <SCORE.INTRA.SOLV>
0.0277543

>  <SCORE.INTRA.SOLV.lig_0>
-5.95779

>  <SCORE.INTRA.VDW>
-0.0364127

>  <SCORE.INTRA.VDW.0>
3.81702

>  <SCORE.INTRA.norm>
0.0294467

>  <SCORE.RESTR>
0

>  <SCORE.RESTR.CAVITY>
0

>  <SCORE.RESTR.norm>
0

>  <SCORE.SYSTEM>
0

>  <SCORE.SYSTEM.CONST>
0

>  <SCORE.SYSTEM.DIHEDRAL>
0

>  <SCORE.SYSTEM.SOLV>
0

>  <SCORE.SYSTEM.norm>
0

>  <SCORE.heavy>
25

>  <SCORE.norm>
-2.09318

>  <RMSD>
0.542

$$$$
1q8n_lig
 OpenBabel11021811403D
libRbt.so/2013.1/901 2013/11/27
 25 27  0  0  0  0  0  0  0  0999 V2000
    0.5751    0.9024   -1.8158 C   0  0  0  0  0  0  0  0  0  0  0  0
    0.5311    2.0239   -3.0015 C   0  0  0  0  0  0  0  0  0  0  0  0
   -1.2346    2.4596    3.6360 N   0  0  0  0  0  0  0  0  0  0  0  0
   -0.1391    1.8542   -4.1663 C   0  0  0  0  0  0  0  0  0  0  0  0
    2.3957   -4.7508   -2.6157 N   0  0  0  0  0  0  0  0  0  0  0  0
   -0.1488    2.8954   -5.2197 C   0  0  0  0  0  0  0  0  0  0  0  0
    0.5243    4.0527   -5.0261 C   0  0  0  0  0  0  0  0  0  0  0  0
    1.2400    4.2569   -3.7884 C   0  0  0  0  0  0  0  0  0  0  0  0
    1.2428    3.3098   -2.8470 C   0  0  0  0  0  0  0  0  0  0  0  0
    0.0785    1.3342   -0.3234 C   0  0  0  0  0  0  0  0  0  0  0  0
   -0.5482    2.5094   -0.1077 C   0  0  0  0  0  0  0  0  0  0  0  0
   -1.0084    2.9200    1.2479 C   0  0  0  0  0  0  0  0  0  0  0  0
   -0.8056    2.1031    2.3160 C   0  0  0  0  0  0  0  0  0  0  0  0
   -0.1235    0.8138    2.0952 C   0  0  0  0  0  0  0  0  0  0  0  0
    0.2858    0.4607    0.8687 C   0  0  0  0  0  0  0  0  0  0  0  0
    1.1080   -0.6425   -2.0955 C   0  0  0  0  0  0  0  0  0  0  0  0
    0.9894   -1.6812   -1.0145 C   0  0  0  0  0  0  0  0  0  0  0  0
    1.3903   -2.9448   -1.1787 C   0  0  0  0  0  0  0  0  0  0  0  0
    1.9791   -3.3902   -2.4471 C   0  0  0  0  0  0  0  0  0  0  0  0
    2.1140   -2.4958   -3.4483 C   0  0  0  0  0  0  0  0  0  0  0  0
    1.6655   -1.0731   -3.2758 C   0  0  0  0  0  0  0  0  0  0  0  0
   -0.9565    1.6410    4.7767 C   0  0  0  0  0  0  0  0  0  0  0  0
   -1.9664    3.6691    3.8520 C   0  0  0  0  0  0  0  0  0  0  0  0
    1.8799   -5.7788   -1.7581 C   0  0  0  0  0  0  0  0  0  0  0  0
    3.3346   -5.1253   -3.6490 C   0  0  0  0  0  0  0  0  0  0  0  0
  1  2  1  0  0  0  0
  1 10  1  0  0  0  0
  1 16  1  0  0  0  0
  2  4  2  0  0  0  0
  2  9  1  0  0  0  0
  4  6  1  0  0  0  0
  6  7  2  0  0  0  0
  7  8  1  0  0  0  0
  8  9  2  0  0  0  0
 10 11  2  0  0  0  0
 10 15  1  0  0  0  0
 11 12  1  0  0  0  0
 12 13  2  0  0  0  0
 13  3  1  0  0  0  0
 13 14  1  0  0  0  0
 14 15  2  0  0  0  0
 16 17  2  0  0  0  0
 16 21  1  0  0  0  0
 17 18  1  0  0  0  0
 18 19  2  0  0  0  0
 19  5  1  0  0  0  0
 19 20  1  0  0  0  0
 20 21  2  0  0  0  0
 22  3  1  0  0  0  0
 23  3  1  0  0  0  0
 24  5  1  0  0  0  0
 25  5  1  0  0  0  0
M  END
>  <CHROM.1>
-123.72239409,10.32546462,-173.28950141,-176.31063544,19.92087525,0.57603917
0.32196833,-1.10227468,-3.08680550,-1.20914523,2.30250866

>  <Name>
1q8n_lig

>  <RI>
0

>  <Rbt.Current_Directory>
/home/itssahil/PROJECTS/Mol_Feturizer/New_Systems/rnas/1q8n

>  <Rbt.Executable>
rbdock ($Id: //depot/dev/client3/rdock/2013.1/src/exe/rbdock.cxx#4 $)

>  <Rbt.Library>
libRbt.so (2013.1, Build901 2013/11/27)

>  <Rbt.Parameter_File>
/export/apps/rDock/src/rDock_2013.1_src/data/scripts/dock_solv.prm

>  <Rbt.Receptor>
prm/blind_docking_40.prm

>  <SCORE>
-52.4214

>  <SCORE.INTER>
-53.1993

>  <SCORE.INTER.CONST>
1

>  <SCORE.INTER.POLAR>
0

>  <SCORE.INTER.ROT>
5

>  <SCORE.INTER.SOLV>
10.5632

>  <SCORE.INTER.VDW>
-45.9206

>  <SCORE.INTER.norm>
-2.12797

>  <SCORE.INTRA>
0.77797

>  <SCORE.INTRA.DIHEDRAL>
1.53526

>  <SCORE.INTRA.DIHEDRAL.0>
2.1627

>  <SCORE.INTRA.POLAR>
0

>  <SCORE.INTRA.POLAR.0>
0

>  <SCORE.INTRA.REPUL>
0

>  <SCORE.INTRA.REPUL.0>
0

>  <SCORE.INTRA.SOLV>
0.0318296

>  <SCORE.INTRA.SOLV.lig_0>
-5.95779

>  <SCORE.INTRA.VDW>
-0.00557681

>  <SCORE.INTRA.VDW.0>
3.81702

>  <SCORE.INTRA.norm>
0.0311188

>  <SCORE.RESTR>
0

>  <SCORE.RESTR.CAVITY>
0

>  <SCORE.RESTR.norm>
0

>  <SCORE.SYSTEM>
0

>  <SCORE.SYSTEM.CONST>
0

>  <SCORE.SYSTEM.DIHEDRAL>
0

>  <SCORE.SYSTEM.SOLV>
0

>  <SCORE.SYSTEM.norm>
0

>  <SCORE.heavy>
25

>  <SCORE.norm>
-2.09685

>  <RMSD>
0.544

$$$$
1q8n_lig
 OpenBabel11021811403D
libRbt.so/2013.1/901 2013/11/27
 25 27  0  0  0  0  0  0  0  0999 V2000
    0.5584    1.0724   -1.8213 C   0  0  0  0  0  0  0  0  0  0  0  0
    0.5447    2.1546   -3.0436 C   0  0  0  0  0  0  0  0  0  0  0  0
    2.5776   -4.4191   -2.9114 N   0  0  0  0  0  0  0  0  0  0  0  0
    1.2165    3.3304   -3.0086 C   0  0  0  0  0  0  0  0  0  0  0  0
   -1.2135    2.3249    3.7648 N   0  0  0  0  0  0  0  0  0  0  0  0
    1.1728    4.2878   -4.1379 C   0  0  0  0  0  0  0  0  0  0  0  0
    0.4476    3.9925   -5.2410 C   0  0  0  0  0  0  0  0  0  0  0  0
   -0.2708    2.7411   -5.3018 C   0  0  0  0  0  0  0  0  0  0  0  0
   -0.2252    1.8869   -4.2764 C   0  0  0  0  0  0  0  0  0  0  0  0
    1.1127   -0.4311   -2.1252 C   0  0  0  0  0  0  0  0  0  0  0  0
    1.8139   -0.7050   -3.2449 C   0  0  0  0  0  0  0  0  0  0  0  0
    2.3276   -2.0716   -3.5386 C   0  0  0  0  0  0  0  0  0  0  0  0
    2.0991   -3.0905   -2.6674 C   0  0  0  0  0  0  0  0  0  0  0  0
    1.3357   -2.8057   -1.4377 C   0  0  0  0  0  0  0  0  0  0  0  0
    0.8790   -1.5702   -1.1897 C   0  0  0  0  0  0  0  0  0  0  0  0
    0.0267    1.4665   -0.3012 C   0  0  0  0  0  0  0  0  0  0  0  0
    0.4054    0.6030    0.8703 C   0  0  0  0  0  0  0  0  0  0  0  0
    0.0184    0.8700    2.1206 C   0  0  0  0  0  0  0  0  0  0  0  0
   -0.8131    2.0421    2.4183 C   0  0  0  0  0  0  0  0  0  0  0  0
   -1.1863    2.8469    1.4017 C   0  0  0  0  0  0  0  0  0  0  0  0
   -0.7560    2.5576   -0.0076 C   0  0  0  0  0  0  0  0  0  0  0  0
    3.5398   -4.7092   -3.9305 C   0  0  0  0  0  0  0  0  0  0  0  0
    2.0962   -5.5123   -2.1251 C   0  0  0  0  0  0  0  0  0  0  0  0
   -1.9660    3.5092    4.0641 C   0  0  0  0  0  0  0  0  0  0  0  0
   -0.8794    1.4307    4.8503 C   0  0  0  0  0  0  0  0  0  0  0  0
  1  2  1  0  0  0  0
  1 10  1  0  0  0  0
  1 16  1  0  0  0  0
  2  4  2  0  0  0  0
  2  9  1  0  0  0  0
  4  6  1  0  0  0  0
  6  7  2  0  0  0  0
  7  8  1  0  0  0  0
  8  9  2  0  0  0  0
 10 11  2  0  0  0  0
 10 15  1  0  0  0  0
 11 12  1  0  0  0  0
 12 13  2  0  0  0  0
 13  3  1  0  0  0  0
 13 14  1  0  0  0  0
 14 15  2  0  0  0  0
 16 17  2  0  0  0  0
 16 21  1  0  0  0  0
 17 18  1  0  0  0  0
 18 19  2  0  0  0  0
 19  5  1  0  0  0  0
 19 20  1  0  0  0  0
 20 21  2  0  0  0  0
 22  3  1  0  0  0  0
 23  3  1  0  0  0  0
 24  5  1  0  0  0  0
 25  5  1  0  0  0  0
M  END
>  <CHROM.1>
-120.68233128,14.65539254,-162.68543137,12.76182844,176.66263371,0.59752823
0.41991098,-1.17670562,0.14506645,1.18754118,-0.91023891

>  <Name>
1q8n_lig

>  <RI>
0

>  <Rbt.Current_Directory>
/home/itssahil/PROJECTS/Mol_Feturizer/New_Systems/rnas/1q8n

>  <Rbt.Executable>
rbdock ($Id: //depot/dev/client3/rdock/2013.1/src/exe/rbdock.cxx#4 $)

>  <Rbt.Library>
libRbt.so (2013.1, Build901 2013/11/27)

>  <Rbt.Parameter_File>
/export/apps/rDock/src/rDock_2013.1_src/data/scripts/dock_solv.prm

>  <Rbt.Receptor>
prm/blind_docking_40.prm

>  <SCORE>
-54.3303

>  <SCORE.INTER>
-54.7531

>  <SCORE.INTER.CONST>
1

>  <SCORE.INTER.POLAR>
0

>  <SCORE.INTER.ROT>
5

>  <SCORE.INTER.SOLV>
10.2809

>  <SCORE.INTER.VDW>
-46.8623

>  <SCORE.INTER.norm>
-2.19012

>  <SCORE.INTRA>
0.422782

>  <SCORE.INTRA.DIHEDRAL>
0.666574

>  <SCORE.INTRA.DIHEDRAL.0>
2.1627

>  <SCORE.INTRA.POLAR>
0

>  <SCORE.INTRA.POLAR.0>
0

>  <SCORE.INTRA.REPUL>
0

>  <SCORE.INTRA.REPUL.0>
0

>  <SCORE.INTRA.SOLV>
0.0220471

>  <SCORE.INTRA.SOLV.lig_0>
-5.95779

>  <SCORE.INTRA.VDW>
0.0784716

>  <SCORE.INTRA.VDW.0>
3.81702

>  <SCORE.INTRA.norm>
0.0169113

>  <SCORE.RESTR>
0

>  <SCORE.RESTR.CAVITY>
0

>  <SCORE.RESTR.norm>
0

>  <SCORE.SYSTEM>
0

>  <SCORE.SYSTEM.CONST>
0

>  <SCORE.SYSTEM.DIHEDRAL>
0

>  <SCORE.SYSTEM.SOLV>
0

>  <SCORE.SYSTEM.norm>
0

>  <SCORE.heavy>
25

>  <SCORE.norm>
-2.17321

>  <RMSD>
0.545

$$$$
1q8n_lig
 OpenBabel11021811413D
libRbt.so/2013.1/901 2013/11/27
 25 27  0  0  0  0  0  0  0  0999 V2000
    0.5655    0.8854   -1.8090 C   0  0  0  0  0  0  0  0  0  0  0  0
    0.5196    2.0140   -2.9879 C   0  0  0  0  0  0  0  0  0  0  0  0
   -1.2418    2.4079    3.6533 N   0  0  0  0  0  0  0  0  0  0  0  0
   -0.1509    1.8504   -4.1535 C   0  0  0  0  0  0  0  0  0  0  0  0
    2.3879   -4.7616   -2.6473 N   0  0  0  0  0  0  0  0  0  0  0  0
   -0.1624    2.8980   -5.2006 C   0  0  0  0  0  0  0  0  0  0  0  0
    0.5092    4.0550   -5.0002 C   0  0  0  0  0  0  0  0  0  0  0  0
    1.2252    4.2527   -3.7615 C   0  0  0  0  0  0  0  0  0  0  0  0
    1.2296    3.2999   -2.8260 C   0  0  0  0  0  0  0  0  0  0  0  0
    0.0687    1.3075   -0.3140 C   0  0  0  0  0  0  0  0  0  0  0  0
   -0.7268    2.3795   -0.1180 C   0  0  0  0  0  0  0  0  0  0  0  0
   -1.1899    2.7795    1.2397 C   0  0  0  0  0  0  0  0  0  0  0  0
   -0.8165    2.0581    2.3303 C   0  0  0  0  0  0  0  0  0  0  0  0
    0.0513    0.8819    2.1314 C   0  0  0  0  0  0  0  0  0  0  0  0
    0.4606    0.5370    0.9026 C   0  0  0  0  0  0  0  0  0  0  0  0
    1.1005   -0.6569   -2.0982 C   0  0  0  0  0  0  0  0  0  0  0  0
    0.9483   -1.7121   -1.0375 C   0  0  0  0  0  0  0  0  0  0  0  0
    1.3492   -2.9745   -1.2104 C   0  0  0  0  0  0  0  0  0  0  0  0
    1.9715   -3.4022   -2.4689 C   0  0  0  0  0  0  0  0  0  0  0  0
    2.1373   -2.4928   -3.4517 C   0  0  0  0  0  0  0  0  0  0  0  0
    1.6891   -1.0712   -3.2693 C   0  0  0  0  0  0  0  0  0  0  0  0
   -0.9454    1.5924    4.7916 C   0  0  0  0  0  0  0  0  0  0  0  0
   -1.9885    3.6073    3.8749 C   0  0  0  0  0  0  0  0  0  0  0  0
    3.3511   -5.0986   -3.6558 C   0  0  0  0  0  0  0  0  0  0  0  0
    1.8594   -5.8229   -1.8204 C   0  0  0  0  0  0  0  0  0  0  0  0
  1  2  1  0  0  0  0
  1 10  1  0  0  0  0
  1 16  1  0  0  0  0
  2  4  2  0  0  0  0
  2  9  1  0  0  0  0
  4  6  1  0  0  0  0
  6  7  2  0  0  0  0
  7  8  1  0  0  0  0
  8  9  2  0  0  0  0
 10 11  2  0  0  0  0
 10 15  1  0  0  0  0
 11 12  1  0  0  0  0
 12 13  2  0  0  0  0
 13  3  1  0  0  0  0
 13 14  1  0  0  0  0
 14 15  2  0  0  0  0
 16 17  2  0  0  0  0
 16 21  1  0  0  0  0
 17 18  1  0  0  0  0
 18 19  2  0  0  0  0
 19  5  1  0  0  0  0
 19 20  1  0  0  0  0
 20 21  2  0  0  0  0
 22  3  1  0  0  0  0
 23  3  1  0  0  0  0
 24  5  1  0  0  0  0
 25  5  1  0  0  0  0
M  END
>  <CHROM.1>
-123.71283262,20.12284861,-171.56522821,174.70702355,-160.16246730,0.56812220
0.30124581,-1.09939740,-3.10080979,-1.20748597,2.29544504

>  <Name>
1q8n_lig

>  <RI>
0

>  <Rbt.Current_Directory>
/home/itssahil/PROJECTS/Mol_Feturizer/New_Systems/rnas/1q8n

>  <Rbt.Executable>
rbdock ($Id: //depot/dev/client3/rdock/2013.1/src/exe/rbdock.cxx#4 $)

>  <Rbt.Library>
libRbt.so (2013.1, Build901 2013/11/27)

>  <Rbt.Parameter_File>
/export/apps/rDock/src/rDock_2013.1_src/data/scripts/dock_solv.prm

>  <Rbt.Receptor>
prm/pocket_docking_7.prm

>  <SCORE>
-52.2359

>  <SCORE.INTER>
-52.8198

>  <SCORE.INTER.CONST>
1

>  <SCORE.INTER.POLAR>
0

>  <SCORE.INTER.ROT>
5

>  <SCORE.INTER.SOLV>
10.5757

>  <SCORE.INTER.VDW>
-45.6718

>  <SCORE.INTER.norm>
-2.11279

>  <SCORE.INTRA>
0.583898

>  <SCORE.INTRA.DIHEDRAL>
1.5788

>  <SCORE.INTRA.DIHEDRAL.0>
2.1627

>  <SCORE.INTRA.POLAR>
0

>  <SCORE.INTRA.POLAR.0>
0

>  <SCORE.INTRA.REPUL>
0

>  <SCORE.INTRA.REPUL.0>
0

>  <SCORE.INTRA.SOLV>
0.0244835

>  <SCORE.INTRA.SOLV.lig_0>
-5.95779

>  <SCORE.INTRA.VDW>
-0.217742

>  <SCORE.INTRA.VDW.0>
3.81702

>  <SCORE.INTRA.norm>
0.0233559

>  <SCORE.RESTR>
0

>  <SCORE.RESTR.CAVITY>
0

>  <SCORE.RESTR.norm>
0

>  <SCORE.SYSTEM>
0

>  <SCORE.SYSTEM.CONST>
0

>  <SCORE.SYSTEM.DIHEDRAL>
0

>  <SCORE.SYSTEM.SOLV>
0

>  <SCORE.SYSTEM.norm>
0

>  <SCORE.heavy>
25

>  <SCORE.norm>
-2.08944

>  <RMSD>
0.546

$$$$
1q8n_lig
 OpenBabel11021811403D
libRbt.so/2013.1/901 2013/11/27
 25 27  0  0  0  0  0  0  0  0999 V2000
    0.6545    0.9153   -1.7867 C   0  0  0  0  0  0  0  0  0  0  0  0
    0.6242    2.0631   -2.9473 C   0  0  0  0  0  0  0  0  0  0  0  0
   -1.1879    2.3976    3.6750 N   0  0  0  0  0  0  0  0  0  0  0  0
    1.2818    3.2433   -2.8488 C   0  0  0  0  0  0  0  0  0  0  0  0
    2.4462   -4.7294   -2.7030 N   0  0  0  0  0  0  0  0  0  0  0  0
    1.2234    4.2611   -3.9233 C   0  0  0  0  0  0  0  0  0  0  0  0
    0.4988    4.0182   -5.0395 C   0  0  0  0  0  0  0  0  0  0  0  0
   -0.2046    2.7634   -5.1679 C   0  0  0  0  0  0  0  0  0  0  0  0
   -0.1457    1.8545   -4.1914 C   0  0  0  0  0  0  0  0  0  0  0  0
    0.1509    1.3166   -0.2882 C   0  0  0  0  0  0  0  0  0  0  0  0
    0.4775    0.5654    0.7839 C   0  0  0  0  0  0  0  0  0  0  0  0
    0.0266    0.9165    2.1592 C   0  0  0  0  0  0  0  0  0  0  0  0
   -0.7353    2.0234    2.3678 C   0  0  0  0  0  0  0  0  0  0  0  0
   -1.0985    2.8559    1.2054 C   0  0  0  0  0  0  0  0  0  0  0  0
   -0.6857    2.5243   -0.0260 C   0  0  0  0  0  0  0  0  0  0  0  0
    1.1807   -0.6259   -2.0975 C   0  0  0  0  0  0  0  0  0  0  0  0
    1.0326   -1.6922   -1.0475 C   0  0  0  0  0  0  0  0  0  0  0  0
    1.4267   -2.9543   -1.2378 C   0  0  0  0  0  0  0  0  0  0  0  0
    2.0370   -3.3704   -2.5060 C   0  0  0  0  0  0  0  0  0  0  0  0
    2.1987   -2.4506   -3.4798 C   0  0  0  0  0  0  0  0  0  0  0  0
    1.7581   -1.0294   -3.2778 C   0  0  0  0  0  0  0  0  0  0  0  0
   -1.9422    3.5911    3.9096 C   0  0  0  0  0  0  0  0  0  0  0  0
   -0.8919    1.5694    4.8026 C   0  0  0  0  0  0  0  0  0  0  0  0
    3.4230   -5.0550   -3.7022 C   0  0  0  0  0  0  0  0  0  0  0  0
    1.8968   -5.8017   -1.9044 C   0  0  0  0  0  0  0  0  0  0  0  0
  1  2  1  0  0  0  0
  1 10  1  0  0  0  0
  1 16  1  0  0  0  0
  2  4  2  0  0  0  0
  2  9  1  0  0  0  0
  4  6  1  0  0  0  0
  6  7  2  0  0  0  0
  7  8  1  0  0  0  0
  8  9  2  0  0  0  0
 10 11  2  0  0  0  0
 10 15  1  0  0  0  0
 11 12  1  0  0  0  0
 12 13  2  0  0  0  0
 13  3  1  0  0  0  0
 13 14  1  0  0  0  0
 14 15  2  0  0  0  0
 16 17  2  0  0  0  0
 16 21  1  0  0  0  0
 17 18  1  0  0  0  0
 18 19  2  0  0  0  0
 19  5  1  0  0  0  0
 19 20  1  0  0  0  0
 20 21  2  0  0  0  0
 22  3  1  0  0  0  0
 23  3  1  0  0  0  0
 24  5  1  0  0  0  0
 25  5  1  0  0  0  0
M  END
>  <CHROM.1>
57.62636609,-161.74233335,-172.46396412,177.30614198,-158.71213043,0.61746870
0.31524419,-1.11461194,-3.13591266,-1.20679875,2.27697347

>  <Name>
1q8n_lig

>  <RI>
0

>  <Rbt.Current_Directory>
/home/itssahil/PROJECTS/Mol_Feturizer/New_Systems/rnas/1q8n

>  <Rbt.Executable>
rbdock ($Id: //depot/dev/client3/rdock/2013.1/src/exe/rbdock.cxx#4 $)

>  <Rbt.Library>
libRbt.so (2013.1, Build901 2013/11/27)

>  <Rbt.Parameter_File>
/export/apps/rDock/src/rDock_2013.1_src/data/scripts/dock_solv.prm

>  <Rbt.Receptor>
prm/blind_docking_100.prm

>  <SCORE>
-52.7337

>  <SCORE.INTER>
-53.4909

>  <SCORE.INTER.CONST>
1

>  <SCORE.INTER.POLAR>
0

>  <SCORE.INTER.ROT>
5

>  <SCORE.INTER.SOLV>
10.441

>  <SCORE.INTER.VDW>
-46.0743

>  <SCORE.INTER.norm>
-2.13964

>  <SCORE.INTRA>
0.757238

>  <SCORE.INTRA.DIHEDRAL>
1.71273

>  <SCORE.INTRA.DIHEDRAL.0>
2.1627

>  <SCORE.INTRA.POLAR>
0

>  <SCORE.INTRA.POLAR.0>
0

>  <SCORE.INTRA.REPUL>
0

>  <SCORE.INTRA.REPUL.0>
0

>  <SCORE.INTRA.SOLV>
0.0240035

>  <SCORE.INTRA.SOLV.lig_0>
-5.95779

>  <SCORE.INTRA.VDW>
-0.111127

>  <SCORE.INTRA.VDW.0>
3.81702

>  <SCORE.INTRA.norm>
0.0302895

>  <SCORE.RESTR>
0

>  <SCORE.RESTR.CAVITY>
0

>  <SCORE.RESTR.norm>
0

>  <SCORE.SYSTEM>
0

>  <SCORE.SYSTEM.CONST>
0

>  <SCORE.SYSTEM.DIHEDRAL>
0

>  <SCORE.SYSTEM.SOLV>
0

>  <SCORE.SYSTEM.norm>
0

>  <SCORE.heavy>
25

>  <SCORE.norm>
-2.10935

>  <RMSD>
0.547

$$$$
1q8n_lig
 OpenBabel11021811403D
libRbt.so/2013.1/901 2013/11/27
 25 27  0  0  0  0  0  0  0  0999 V2000
    0.5401    0.8941   -1.7770 C   0  0  0  0  0  0  0  0  0  0  0  0
    0.5094    2.0105   -2.9678 C   0  0  0  0  0  0  0  0  0  0  0  0
   -1.2798    2.4895    3.6603 N   0  0  0  0  0  0  0  0  0  0  0  0
   -0.1245    1.8246   -4.1504 C   0  0  0  0  0  0  0  0  0  0  0  0
    2.3232   -4.7756   -2.5441 N   0  0  0  0  0  0  0  0  0  0  0  0
   -0.1234    2.8619   -5.2078 C   0  0  0  0  0  0  0  0  0  0  0  0
    0.5230    4.0319   -4.9999 C   0  0  0  0  0  0  0  0  0  0  0  0
    1.1997    4.2534   -3.7433 C   0  0  0  0  0  0  0  0  0  0  0  0
    1.1930    3.3097   -2.7985 C   0  0  0  0  0  0  0  0  0  0  0  0
    0.0399    1.3362   -0.2888 C   0  0  0  0  0  0  0  0  0  0  0  0
   -0.7463    2.4176   -0.1078 C   0  0  0  0  0  0  0  0  0  0  0  0
   -1.2124    2.8359    1.2434 C   0  0  0  0  0  0  0  0  0  0  0  0
   -0.8513    2.1221    2.3431 C   0  0  0  0  0  0  0  0  0  0  0  0
    0.0063    0.9359    2.1606 C   0  0  0  0  0  0  0  0  0  0  0  0
    0.4184    0.5745    0.9375 C   0  0  0  0  0  0  0  0  0  0  0  0
    1.0634   -0.6557   -2.0473 C   0  0  0  0  0  0  0  0  0  0  0  0
    0.9250   -1.6908   -0.9652 C   0  0  0  0  0  0  0  0  0  0  0  0
    1.3174   -2.9579   -1.1221 C   0  0  0  0  0  0  0  0  0  0  0  0
    1.9158   -3.4112   -2.3831 C   0  0  0  0  0  0  0  0  0  0  0  0
    2.0685   -2.5204   -3.3850 C   0  0  0  0  0  0  0  0  0  0  0  0
    1.6298   -1.0938   -3.2206 C   0  0  0  0  0  0  0  0  0  0  0  0
   -2.0103    3.6930    3.9181 C   0  0  0  0  0  0  0  0  0  0  0  0
   -0.9830    1.6439    4.7748 C   0  0  0  0  0  0  0  0  0  0  0  0
    3.2480   -5.1390   -3.5790 C   0  0  0  0  0  0  0  0  0  0  0  0
    1.8239   -5.8154   -1.6729 C   0  0  0  0  0  0  0  0  0  0  0  0
  1  2  1  0  0  0  0
  1 10  1  0  0  0  0
  1 16  1  0  0  0  0
  2  4  2  0  0  0  0
  2  9  1  0  0  0  0
  4  6  1  0  0  0  0
  6  7  2  0  0  0  0
  7  8  1  0  0  0  0
  8  9  2  0  0  0  0
 10 11  2  0  0  0  0
 10 15  1  0  0  0  0
 11 12  1  0  0  0  0
 12 13  2  0  0  0  0
 13  3  1  0  0  0  0
 13 14  1  0  0  0  0
 14 15  2  0  0  0  0
 16 17  2  0  0  0  0
 16 21  1  0  0  0  0
 17 18  1  0  0  0  0
 18 19  2  0  0  0  0
 19  5  1  0  0  0  0
 19 20  1  0  0  0  0
 20 21  2  0  0  0  0
 22  3  1  0  0  0  0
 23  3  1  0  0  0  0
 24  5  1  0  0  0  0
 25  5  1  0  0  0  0
M  END
>  <CHROM.1>
-125.70289883,20.06096556,-172.91984170,-5.80949788,-161.34714018,0.53607559
0.31606097,-1.05938544,-3.08047140,-1.21099666,2.30404890

>  <Name>
1q8n_lig

>  <RI>
0

>  <Rbt.Current_Directory>
/home/itssahil/PROJECTS/Mol_Feturizer/New_Systems/rnas/1q8n

>  <Rbt.Executable>
rbdock ($Id: //depot/dev/client3/rdock/2013.1/src/exe/rbdock.cxx#4 $)

>  <Rbt.Library>
libRbt.so (2013.1, Build901 2013/11/27)

>  <Rbt.Parameter_File>
/export/apps/rDock/src/rDock_2013.1_src/data/scripts/dock_solv.prm

>  <Rbt.Receptor>
prm/pocket_docking_4.prm

>  <SCORE>
-52.0449

>  <SCORE.INTER>
-52.6334

>  <SCORE.INTER.CONST>
1

>  <SCORE.INTER.POLAR>
0

>  <SCORE.INTER.ROT>
5

>  <SCORE.INTER.SOLV>
10.6559

>  <SCORE.INTER.VDW>
-45.5742

>  <SCORE.INTER.norm>
-2.10534

>  <SCORE.INTRA>
0.58853

>  <SCORE.INTRA.DIHEDRAL>
1.43627

>  <SCORE.INTRA.DIHEDRAL.0>
2.1627

>  <SCORE.INTRA.POLAR>
0

>  <SCORE.INTRA.POLAR.0>
0

>  <SCORE.INTRA.REPUL>
0

>  <SCORE.INTRA.REPUL.0>
0

>  <SCORE.INTRA.SOLV>
0.0272897

>  <SCORE.INTRA.SOLV.lig_0>
-5.95779

>  <SCORE.INTRA.VDW>
-0.14325

>  <SCORE.INTRA.VDW.0>
3.81702

>  <SCORE.INTRA.norm>
0.0235412

>  <SCORE.RESTR>
0

>  <SCORE.RESTR.CAVITY>
0

>  <SCORE.RESTR.norm>
0

>  <SCORE.SYSTEM>
0

>  <SCORE.SYSTEM.CONST>
0

>  <SCORE.SYSTEM.DIHEDRAL>
0

>  <SCORE.SYSTEM.SOLV>
0

>  <SCORE.SYSTEM.norm>
0

>  <SCORE.heavy>
25

>  <SCORE.norm>
-2.08179

>  <RMSD>
0.548

$$$$
1q8n_lig
 OpenBabel11021811403D
libRbt.so/2013.1/901 2013/11/27
 25 27  0  0  0  0  0  0  0  0999 V2000
    0.5553    0.8758   -1.8187 C   0  0  0  0  0  0  0  0  0  0  0  0
    0.5072    1.9993   -3.0023 C   0  0  0  0  0  0  0  0  0  0  0  0
   -1.2261    2.4263    3.6443 N   0  0  0  0  0  0  0  0  0  0  0  0
   -0.1617    1.8291   -4.1679 C   0  0  0  0  0  0  0  0  0  0  0  0
    2.3638   -4.7785   -2.6378 N   0  0  0  0  0  0  0  0  0  0  0  0
   -0.1752    2.8723   -5.2193 C   0  0  0  0  0  0  0  0  0  0  0  0
    0.4929    4.0320   -5.0231 C   0  0  0  0  0  0  0  0  0  0  0  0
    1.2071    4.2369   -3.7846 C   0  0  0  0  0  0  0  0  0  0  0  0
    1.2134    3.2880   -2.8451 C   0  0  0  0  0  0  0  0  0  0  0  0
    0.0658    1.3056   -0.3235 C   0  0  0  0  0  0  0  0  0  0  0  0
   -0.6819    2.4107   -0.1230 C   0  0  0  0  0  0  0  0  0  0  0  0
   -1.1376    2.8183    1.2350 C   0  0  0  0  0  0  0  0  0  0  0  0
   -0.8062    2.0702    2.3212 C   0  0  0  0  0  0  0  0  0  0  0  0
    0.0091    0.8579    2.1173 C   0  0  0  0  0  0  0  0  0  0  0  0
    0.4124    0.5065    0.8883 C   0  0  0  0  0  0  0  0  0  0  0  0
    1.0852   -0.6691   -2.1035 C   0  0  0  0  0  0  0  0  0  0  0  0
    0.9566   -1.7133   -1.0289 C   0  0  0  0  0  0  0  0  0  0  0  0
    1.3548   -2.9772   -1.1974 C   0  0  0  0  0  0  0  0  0  0  0  0
    1.9502   -3.4175   -2.4644 C   0  0  0  0  0  0  0  0  0  0  0  0
    2.0941   -2.5182   -3.4599 C   0  0  0  0  0  0  0  0  0  0  0  0
    1.6489   -1.0951   -3.2825 C   0  0  0  0  0  0  0  0  0  0  0  0
   -0.9315    1.6123    4.7841 C   0  0  0  0  0  0  0  0  0  0  0  0
   -1.9653    3.6306    3.8643 C   0  0  0  0  0  0  0  0  0  0  0  0
    1.8445   -5.8086   -1.7847 C   0  0  0  0  0  0  0  0  0  0  0  0
    3.3031   -5.1513   -3.6713 C   0  0  0  0  0  0  0  0  0  0  0  0
  1  2  1  0  0  0  0
  1 10  1  0  0  0  0
  1 16  1  0  0  0  0
  2  4  2  0  0  0  0
  2  9  1  0  0  0  0
  4  6  1  0  0  0  0
  6  7  2  0  0  0  0
  7  8  1  0  0  0  0
  8  9  2  0  0  0  0
 10 11  2  0  0  0  0
 10 15  1  0  0  0  0
 11 12  1  0  0  0  0
 12 13  2  0  0  0  0
 13  3  1  0  0  0  0
 13 14  1  0  0  0  0
 14 15  2  0  0  0  0
 16 17  2  0  0  0  0
 16 21  1  0  0  0  0
 17 18  1  0  0  0  0
 18 19  2  0  0  0  0
 19  5  1  0  0  0  0
 19 20  1  0  0  0  0
 20 21  2  0  0  0  0
 22  3  1  0  0  0  0
 23  3  1  0  0  0  0
 24  5  1  0  0  0  0
 25  5  1  0  0  0  0
M  END
>  <CHROM.1>
-124.13852144,17.44523712,-172.62849839,177.16314531,19.61468202,0.55927345
0.29464236,-1.10624832,-3.10413665,-1.21245158,2.28784373

>  <Name>
1q8n_lig

>  <RI>
0

>  <Rbt.Current_Directory>
/home/itssahil/PROJECTS/Mol_Feturizer/New_Systems/rnas/1q8n

>  <Rbt.Executable>
rbdock ($Id: //depot/dev/client3/rdock/2013.1/src/exe/rbdock.cxx#4 $)

>  <Rbt.Library>
libRbt.so (2013.1, Build901 2013/11/27)

>  <Rbt.Parameter_File>
/export/apps/rDock/src/rDock_2013.1_src/data/scripts/dock_solv.prm

>  <Rbt.Receptor>
prm/blind_docking_20.prm

>  <SCORE>
-52.4693

>  <SCORE.INTER>
-53.0697

>  <SCORE.INTER.CONST>
1

>  <SCORE.INTER.POLAR>
0

>  <SCORE.INTER.ROT>
5

>  <SCORE.INTER.SOLV>
10.5877

>  <SCORE.INTER.VDW>
-45.8424

>  <SCORE.INTER.norm>
-2.12279

>  <SCORE.INTRA>
0.600368

>  <SCORE.INTRA.DIHEDRAL>
1.46968

>  <SCORE.INTRA.DIHEDRAL.0>
2.1627

>  <SCORE.INTRA.POLAR>
0

>  <SCORE.INTRA.POLAR.0>
0

>  <SCORE.INTRA.REPUL>
0

>  <SCORE.INTRA.REPUL.0>
0

>  <SCORE.INTRA.SOLV>
0.0275108

>  <SCORE.INTRA.SOLV.lig_0>
-5.95779

>  <SCORE.INTRA.VDW>
-0.148226

>  <SCORE.INTRA.VDW.0>
3.81702

>  <SCORE.INTRA.norm>
0.0240147

>  <SCORE.RESTR>
0

>  <SCORE.RESTR.CAVITY>
0

>  <SCORE.RESTR.norm>
0

>  <SCORE.SYSTEM>
0

>  <SCORE.SYSTEM.CONST>
0

>  <SCORE.SYSTEM.DIHEDRAL>
0

>  <SCORE.SYSTEM.SOLV>
0

>  <SCORE.SYSTEM.norm>
0

>  <SCORE.heavy>
25

>  <SCORE.norm>
-2.09877

>  <RMSD>
0.555

$$$$
1q8n_lig
 OpenBabel11021811403D
libRbt.so/2013.1/901 2013/11/27
 25 27  0  0  0  0  0  0  0  0999 V2000
    0.5729    0.8886   -1.8237 C   0  0  0  0  0  0  0  0  0  0  0  0
    0.5300    2.0101   -3.0094 C   0  0  0  0  0  0  0  0  0  0  0  0
   -1.2134    2.4545    3.6334 N   0  0  0  0  0  0  0  0  0  0  0  0
   -0.1518    1.8468   -4.1684 C   0  0  0  0  0  0  0  0  0  0  0  0
    2.3643   -4.7730   -2.6295 N   0  0  0  0  0  0  0  0  0  0  0  0
   -0.1601    2.8877   -5.2221 C   0  0  0  0  0  0  0  0  0  0  0  0
    0.5263    4.0383   -5.0347 C   0  0  0  0  0  0  0  0  0  0  0  0
    1.2546    4.2357   -3.8033 C   0  0  0  0  0  0  0  0  0  0  0  0
    1.2559    3.2889   -2.8616 C   0  0  0  0  0  0  0  0  0  0  0  0
    0.0830    1.3229   -0.3298 C   0  0  0  0  0  0  0  0  0  0  0  0
   -0.4911    2.5227   -0.1033 C   0  0  0  0  0  0  0  0  0  0  0  0
   -0.9443    2.9359    1.2538 C   0  0  0  0  0  0  0  0  0  0  0  0
   -0.7891    2.0963    2.3122 C   0  0  0  0  0  0  0  0  0  0  0  0
   -0.1650    0.7801    2.0795 C   0  0  0  0  0  0  0  0  0  0  0  0
    0.2389    0.4248    0.8518 C   0  0  0  0  0  0  0  0  0  0  0  0
    1.0980   -0.6586   -2.1049 C   0  0  0  0  0  0  0  0  0  0  0  0
    0.9683   -1.6994   -1.0271 C   0  0  0  0  0  0  0  0  0  0  0  0
    1.3626   -2.9648   -1.1926 C   0  0  0  0  0  0  0  0  0  0  0  0
    1.9547   -3.4104   -2.4594 C   0  0  0  0  0  0  0  0  0  0  0  0
    2.0996   -2.5143   -3.4576 C   0  0  0  0  0  0  0  0  0  0  0  0
    1.6586   -1.0895   -3.2836 C   0  0  0  0  0  0  0  0  0  0  0  0
   -0.9172    1.6456    4.7763 C   0  0  0  0  0  0  0  0  0  0  0  0
   -1.9588    3.6559    3.8480 C   0  0  0  0  0  0  0  0  0  0  0  0
    3.3061   -5.1248   -3.6530 C   0  0  0  0  0  0  0  0  0  0  0  0
    1.8501   -5.8227   -1.7790 C   0  0  0  0  0  0  0  0  0  0  0  0
  1  2  1  0  0  0  0
  1 10  1  0  0  0  0
  1 16  1  0  0  0  0
  2  4  2  0  0  0  0
  2  9  1  0  0  0  0
  4  6  1  0  0  0  0
  6  7  2  0  0  0  0
  7  8  1  0  0  0  0
  8  9  2  0  0  0  0
 10 11  2  0  0  0  0
 10 15  1  0  0  0  0
 11 12  1  0  0  0  0
 12 13  2  0  0  0  0
 13  3  1  0  0  0  0
 13 14  1  0  0  0  0
 14 15  2  0  0  0  0
 16 17  2  0  0  0  0
 16 21  1  0  0  0  0
 17 18  1  0  0  0  0
 18 19  2  0  0  0  0
 19  5  1  0  0  0  0
 19 20  1  0  0  0  0
 20 21  2  0  0  0  0
 22  3  1  0  0  0  0
 23  3  1  0  0  0  0
 24  5  1  0  0  0  0
 25  5  1  0  0  0  0
M  END
>  <CHROM.1>
-123.27623510,7.71980796,-172.80375059,-172.66992317,-159.99033342,0.57322680
0.30813108,-1.11032343,-3.08038225,-1.21448266,2.30854572

>  <Name>
1q8n_lig

>  <RI>
0

>  <Rbt.Current_Directory>
/home/itssahil/PROJECTS/Mol_Feturizer/New_Systems/rnas/1q8n

>  <Rbt.Executable>
rbdock ($Id: //depot/dev/client3/rdock/2013.1/src/exe/rbdock.cxx#4 $)

>  <Rbt.Library>
libRbt.so (2013.1, Build901 2013/11/27)

>  <Rbt.Parameter_File>
/export/apps/rDock/src/rDock_2013.1_src/data/scripts/dock_solv.prm

>  <Rbt.Receptor>
prm/pocket_docking_3.prm

>  <SCORE>
-52.1899

>  <SCORE.INTER>
-53.0803

>  <SCORE.INTER.CONST>
1

>  <SCORE.INTER.POLAR>
0

>  <SCORE.INTER.ROT>
5

>  <SCORE.INTER.SOLV>
10.5386

>  <SCORE.INTER.VDW>
-45.833

>  <SCORE.INTER.norm>
-2.12321

>  <SCORE.INTRA>
0.890355

>  <SCORE.INTRA.DIHEDRAL>
1.70361

>  <SCORE.INTRA.DIHEDRAL.0>
2.1627

>  <SCORE.INTRA.POLAR>
0

>  <SCORE.INTRA.POLAR.0>
0

>  <SCORE.INTRA.REPUL>
0

>  <SCORE.INTRA.REPUL.0>
0

>  <SCORE.INTRA.SOLV>
0.0324049

>  <SCORE.INTRA.SOLV.lig_0>
-5.95779

>  <SCORE.INTRA.VDW>
0.0223459

>  <SCORE.INTRA.VDW.0>
3.81702

>  <SCORE.INTRA.norm>
0.0356142

>  <SCORE.RESTR>
0

>  <SCORE.RESTR.CAVITY>
0

>  <SCORE.RESTR.norm>
0

>  <SCORE.SYSTEM>
0

>  <SCORE.SYSTEM.CONST>
0

>  <SCORE.SYSTEM.DIHEDRAL>
0

>  <SCORE.SYSTEM.SOLV>
0

>  <SCORE.SYSTEM.norm>
0

>  <SCORE.heavy>
25

>  <SCORE.norm>
-2.0876

>  <RMSD>
0.558

$$$$
1q8n_lig
 OpenBabel11021811403D
libRbt.so/2013.1/901 2013/11/27
 25 27  0  0  0  0  0  0  0  0999 V2000
    0.5694    0.8664   -1.7854 C   0  0  0  0  0  0  0  0  0  0  0  0
    0.5231    1.9990   -2.9604 C   0  0  0  0  0  0  0  0  0  0  0  0
   -1.2405    2.4076    3.6708 N   0  0  0  0  0  0  0  0  0  0  0  0
   -0.1305    1.8313   -4.1349 C   0  0  0  0  0  0  0  0  0  0  0  0
    2.3942   -4.7774   -2.6399 N   0  0  0  0  0  0  0  0  0  0  0  0
   -0.1430    2.8828   -5.1780 C   0  0  0  0  0  0  0  0  0  0  0  0
    0.5106    4.0478   -4.9648 C   0  0  0  0  0  0  0  0  0  0  0  0
    1.2083    4.2500   -3.7165 C   0  0  0  0  0  0  0  0  0  0  0  0
    1.2138    3.2936   -2.7846 C   0  0  0  0  0  0  0  0  0  0  0  0
    0.0749    1.2839   -0.2883 C   0  0  0  0  0  0  0  0  0  0  0  0
    0.4300    0.5593    0.7930 C   0  0  0  0  0  0  0  0  0  0  0  0
   -0.0122    0.9256    2.1671 C   0  0  0  0  0  0  0  0  0  0  0  0
   -0.7952    2.0196    2.3651 C   0  0  0  0  0  0  0  0  0  0  0  0
   -1.1898    2.8230    1.1926 C   0  0  0  0  0  0  0  0  0  0  0  0
   -0.7844    2.4780   -0.0376 C   0  0  0  0  0  0  0  0  0  0  0  0
    1.1027   -0.6754   -2.0805 C   0  0  0  0  0  0  0  0  0  0  0  0
    1.0000   -1.7206   -1.0041 C   0  0  0  0  0  0  0  0  0  0  0  0
    1.4020   -2.9822   -1.1804 C   0  0  0  0  0  0  0  0  0  0  0  0
    1.9762   -3.4189   -2.4584 C   0  0  0  0  0  0  0  0  0  0  0  0
    2.0966   -2.5185   -3.4561 C   0  0  0  0  0  0  0  0  0  0  0  0
    1.6467   -1.0980   -3.2700 C   0  0  0  0  0  0  0  0  0  0  0  0
   -1.9815    3.6107    3.8990 C   0  0  0  0  0  0  0  0  0  0  0  0
   -0.9502    1.5842    4.8035 C   0  0  0  0  0  0  0  0  0  0  0  0
    3.3512   -5.1123   -3.6550 C   0  0  0  0  0  0  0  0  0  0  0  0
    1.8735   -5.8399   -1.8095 C   0  0  0  0  0  0  0  0  0  0  0  0
  1  2  1  0  0  0  0
  1 10  1  0  0  0  0
  1 16  1  0  0  0  0
  2  4  2  0  0  0  0
  2  9  1  0  0  0  0
  4  6  1  0  0  0  0
  6  7  2  0  0  0  0
  7  8  1  0  0  0  0
  8  9  2  0  0  0  0
 10 11  2  0  0  0  0
 10 15  1  0  0  0  0
 11 12  1  0  0  0  0
 12 13  2  0  0  0  0
 13  3  1  0  0  0  0
 13 14  1  0  0  0  0
 14 15  2  0  0  0  0
 16 17  2  0  0  0  0
 16 21  1  0  0  0  0
 17 18  1  0  0  0  0
 18 19  2  0  0  0  0
 19  5  1  0  0  0  0
 19 20  1  0  0  0  0
 20 21  2  0  0  0  0
 22  3  1  0  0  0  0
 23  3  1  0  0  0  0
 24  5  1  0  0  0  0
 25  5  1  0  0  0  0
M  END
>  <CHROM.1>
-124.84559275,-160.78895726,-173.95674171,175.29869655,-158.15684440,0.56591938
0.29761649,-1.08390039,-3.09625507,-1.20744130,2.29528962

>  <Name>
1q8n_lig

>  <RI>
0

>  <Rbt.Current_Directory>
/home/itssahil/PROJECTS/Mol_Feturizer/New_Systems/rnas/1q8n

>  <Rbt.Executable>
rbdock ($Id: //depot/dev/client3/rdock/2013.1/src/exe/rbdock.cxx#4 $)

>  <Rbt.Library>
libRbt.so (2013.1, Build901 2013/11/27)

>  <Rbt.Parameter_File>
/export/apps/rDock/src/rDock_2013.1_src/data/scripts/dock_solv.prm

>  <Rbt.Receptor>
prm/pocket_docking_3.prm

>  <SCORE>
-52.2218

>  <SCORE.INTER>
-52.9869

>  <SCORE.INTER.CONST>
1

>  <SCORE.INTER.POLAR>
0

>  <SCORE.INTER.ROT>
5

>  <SCORE.INTER.SOLV>
10.5806

>  <SCORE.INTER.VDW>
-45.7848

>  <SCORE.INTER.norm>
-2.11947

>  <SCORE.INTRA>
0.765093

>  <SCORE.INTRA.DIHEDRAL>
1.8551

>  <SCORE.INTRA.DIHEDRAL.0>
2.1627

>  <SCORE.INTRA.POLAR>
0

>  <SCORE.INTRA.POLAR.0>
0

>  <SCORE.INTRA.REPUL>
0

>  <SCORE.INTRA.REPUL.0>
0

>  <SCORE.INTRA.SOLV>
0.0263702

>  <SCORE.INTRA.SOLV.lig_0>
-5.95779

>  <SCORE.INTRA.VDW>
-0.175639

>  <SCORE.INTRA.VDW.0>
3.81702

>  <SCORE.INTRA.norm>
0.0306037

>  <SCORE.RESTR>
0

>  <SCORE.RESTR.CAVITY>
0

>  <SCORE.RESTR.norm>
0

>  <SCORE.SYSTEM>
0

>  <SCORE.SYSTEM.CONST>
0

>  <SCORE.SYSTEM.DIHEDRAL>
0

>  <SCORE.SYSTEM.SOLV>
0

>  <SCORE.SYSTEM.norm>
0

>  <SCORE.heavy>
25

>  <SCORE.norm>
-2.08887

>  <RMSD>
0.561

$$$$
1q8n_lig
 OpenBabel11021811403D
libRbt.so/2013.1/901 2013/11/27
 25 27  0  0  0  0  0  0  0  0999 V2000
    0.5803    0.8916   -1.8109 C   0  0  0  0  0  0  0  0  0  0  0  0
    0.5373    2.0165   -2.9933 C   0  0  0  0  0  0  0  0  0  0  0  0
   -1.2193    2.4371    3.6475 N   0  0  0  0  0  0  0  0  0  0  0  0
   -0.1384    1.8534   -4.1560 C   0  0  0  0  0  0  0  0  0  0  0  0
    2.3822   -4.7645   -2.6323 N   0  0  0  0  0  0  0  0  0  0  0  0
   -0.1471    2.8975   -5.2065 C   0  0  0  0  0  0  0  0  0  0  0  0
    0.5325    4.0509   -5.0123 C   0  0  0  0  0  0  0  0  0  0  0  0
    1.2542    4.2482   -3.7769 C   0  0  0  0  0  0  0  0  0  0  0  0
    1.2560    3.2984   -2.8382 C   0  0  0  0  0  0  0  0  0  0  0  0
    0.0867    1.3203   -0.3166 C   0  0  0  0  0  0  0  0  0  0  0  0
   -0.4903    2.5181   -0.0875 C   0  0  0  0  0  0  0  0  0  0  0  0
   -0.9469    2.9263    1.2700 C   0  0  0  0  0  0  0  0  0  0  0  0
   -0.7918    2.0838    2.3261 C   0  0  0  0  0  0  0  0  0  0  0  0
   -0.1645    0.7697    2.0906 C   0  0  0  0  0  0  0  0  0  0  0  0
    0.2425    0.4190    0.8626 C   0  0  0  0  0  0  0  0  0  0  0  0
    1.1093   -0.6537   -2.0957 C   0  0  0  0  0  0  0  0  0  0  0  0
    0.9616   -1.7029   -1.0285 C   0  0  0  0  0  0  0  0  0  0  0  0
    1.3580   -2.9673   -1.1976 C   0  0  0  0  0  0  0  0  0  0  0  0
    1.9705   -3.4031   -2.4580 C   0  0  0  0  0  0  0  0  0  0  0  0
    2.1320   -2.4992   -3.4466 C   0  0  0  0  0  0  0  0  0  0  0  0
    1.6889   -1.0756   -3.2685 C   0  0  0  0  0  0  0  0  0  0  0  0
   -1.9570    3.6336    3.9173 C   0  0  0  0  0  0  0  0  0  0  0  0
   -0.9139    1.5842    4.7540 C   0  0  0  0  0  0  0  0  0  0  0  0
    3.3374   -5.1093   -3.6457 C   0  0  0  0  0  0  0  0  0  0  0  0
    1.8568   -5.8201   -1.7960 C   0  0  0  0  0  0  0  0  0  0  0  0
  1  2  1  0  0  0  0
  1 10  1  0  0  0  0
  1 16  1  0  0  0  0
  2  4  2  0  0  0  0
  2  9  1  0  0  0  0
  4  6  1  0  0  0  0
  6  7  2  0  0  0  0
  7  8  1  0  0  0  0
  8  9  2  0  0  0  0
 10 11  2  0  0  0  0
 10 15  1  0  0  0  0
 11 12  1  0  0  0  0
 12 13  2  0  0  0  0
 13  3  1  0  0  0  0
 13 14  1  0  0  0  0
 14 15  2  0  0  0  0
 16 17  2  0  0  0  0
 16 21  1  0  0  0  0
 17 18  1  0  0  0  0
 18 19  2  0  0  0  0
 19  5  1  0  0  0  0
 19 20  1  0  0  0  0
 20 21  2  0  0  0  0
 22  3  1  0  0  0  0
 23  3  1  0  0  0  0
 24  5  1  0  0  0  0
 25  5  1  0  0  0  0
M  END
>  <CHROM.1>
-123.50385660,7.71995110,-171.91525994,6.56409291,-160.17734550,0.58065551
0.30673881,-1.09884510,-3.07887481,-1.21204182,2.31403322

>  <Name>
1q8n_lig

>  <RI>
0

>  <Rbt.Current_Directory>
/home/itssahil/PROJECTS/Mol_Feturizer/New_Systems/rnas/1q8n

>  <Rbt.Executable>
rbdock ($Id: //depot/dev/client3/rdock/2013.1/src/exe/rbdock.cxx#4 $)

>  <Rbt.Library>
libRbt.so (2013.1, Build901 2013/11/27)

>  <Rbt.Parameter_File>
/export/apps/rDock/src/rDock_2013.1_src/data/scripts/dock_solv.prm

>  <Rbt.Receptor>
prm/pocket_docking_3.prm

>  <SCORE>
-52.1317

>  <SCORE.INTER>
-52.9936

>  <SCORE.INTER.CONST>
1

>  <SCORE.INTER.POLAR>
0

>  <SCORE.INTER.ROT>
5

>  <SCORE.INTER.SOLV>
10.5154

>  <SCORE.INTER.VDW>
-45.7675

>  <SCORE.INTER.norm>
-2.11975

>  <SCORE.INTRA>
0.86196

>  <SCORE.INTRA.DIHEDRAL>
1.63581

>  <SCORE.INTRA.DIHEDRAL.0>
2.1627

>  <SCORE.INTRA.POLAR>
0

>  <SCORE.INTRA.POLAR.0>
0

>  <SCORE.INTRA.REPUL>
0

>  <SCORE.INTRA.REPUL.0>
0

>  <SCORE.INTRA.SOLV>
0.0323519

>  <SCORE.INTRA.SOLV.lig_0>
-5.95779

>  <SCORE.INTRA.VDW>
0.0278768

>  <SCORE.INTRA.VDW.0>
3.81702

>  <SCORE.INTRA.norm>
0.0344784

>  <SCORE.RESTR>
0

>  <SCORE.RESTR.CAVITY>
0

>  <SCORE.RESTR.norm>
0

>  <SCORE.SYSTEM>
0

>  <SCORE.SYSTEM.CONST>
0

>  <SCORE.SYSTEM.DIHEDRAL>
0

>  <SCORE.SYSTEM.SOLV>
0

>  <SCORE.SYSTEM.norm>
0

>  <SCORE.heavy>
25

>  <SCORE.norm>
-2.08527

>  <RMSD>
0.564

$$$$
1q8n_lig
 OpenBabel11021811403D
libRbt.so/2013.1/901 2013/11/27
 25 27  0  0  0  0  0  0  0  0999 V2000
    0.6043    0.8671   -1.7745 C   0  0  0  0  0  0  0  0  0  0  0  0
    0.5817    2.0024   -2.9476 C   0  0  0  0  0  0  0  0  0  0  0  0
   -1.2405    2.4178    3.6674 N   0  0  0  0  0  0  0  0  0  0  0  0
    1.2160    3.1949   -2.8461 C   0  0  0  0  0  0  0  0  0  0  0  0
    2.3750   -4.7949   -2.6227 N   0  0  0  0  0  0  0  0  0  0  0  0
    1.1655    4.2005   -3.9324 C   0  0  0  0  0  0  0  0  0  0  0  0
    0.4721    3.9335   -5.0628 C   0  0  0  0  0  0  0  0  0  0  0  0
   -0.2060    2.6652   -5.1945 C   0  0  0  0  0  0  0  0  0  0  0  0
   -0.1546    1.7675   -4.2073 C   0  0  0  0  0  0  0  0  0  0  0  0
    0.1003    1.2873   -0.2813 C   0  0  0  0  0  0  0  0  0  0  0  0
    0.4788    0.5863    0.8076 C   0  0  0  0  0  0  0  0  0  0  0  0
    0.0285    0.9553    2.1783 C   0  0  0  0  0  0  0  0  0  0  0  0
   -0.7863    2.0279    2.3653 C   0  0  0  0  0  0  0  0  0  0  0  0
   -1.2068    2.8054    1.1843 C   0  0  0  0  0  0  0  0  0  0  0  0
   -0.7936    2.4582   -0.0426 C   0  0  0  0  0  0  0  0  0  0  0  0
    1.1232   -0.6800   -2.0676 C   0  0  0  0  0  0  0  0  0  0  0  0
    1.0025   -1.7250   -0.9929 C   0  0  0  0  0  0  0  0  0  0  0  0
    1.3924   -2.9906   -1.1678 C   0  0  0  0  0  0  0  0  0  0  0  0
    1.9702   -3.4321   -2.4426 C   0  0  0  0  0  0  0  0  0  0  0  0
    2.1064   -2.5322   -3.4386 C   0  0  0  0  0  0  0  0  0  0  0  0
    1.6704   -1.1072   -3.2540 C   0  0  0  0  0  0  0  0  0  0  0  0
   -1.9834    3.6210    3.8886 C   0  0  0  0  0  0  0  0  0  0  0  0
   -0.9578    1.5961    4.8032 C   0  0  0  0  0  0  0  0  0  0  0  0
    1.8461   -5.8263   -1.7771 C   0  0  0  0  0  0  0  0  0  0  0  0
    3.3147   -5.1681   -3.6557 C   0  0  0  0  0  0  0  0  0  0  0  0
  1  2  1  0  0  0  0
  1 10  1  0  0  0  0
  1 16  1  0  0  0  0
  2  4  2  0  0  0  0
  2  9  1  0  0  0  0
  4  6  1  0  0  0  0
  6  7  2  0  0  0  0
  7  8  1  0  0  0  0
  8  9  2  0  0  0  0
 10 11  2  0  0  0  0
 10 15  1  0  0  0  0
 11 12  1  0  0  0  0
 12 13  2  0  0  0  0
 13  3  1  0  0  0  0
 13 14  1  0  0  0  0
 14 15  2  0  0  0  0
 16 17  2  0  0  0  0
 16 21  1  0  0  0  0
 17 18  1  0  0  0  0
 18 19  2  0  0  0  0
 19  5  1  0  0  0  0
 19 20  1  0  0  0  0
 20 21  2  0  0  0  0
 22  3  1  0  0  0  0
 23  3  1  0  0  0  0
 24  5  1  0  0  0  0
 25  5  1  0  0  0  0
M  END
>  <CHROM.1>
55.81414461,-158.23793026,-174.13979918,173.44282059,20.52229362,0.56403138
0.27426091,-1.09569410,-3.13224633,-1.20911385,2.27008562

>  <Name>
1q8n_lig

>  <RI>
0

>  <Rbt.Current_Directory>
/home/itssahil/PROJECTS/Mol_Feturizer/New_Systems/rnas/1q8n

>  <Rbt.Executable>
rbdock ($Id: //depot/dev/client3/rdock/2013.1/src/exe/rbdock.cxx#4 $)

>  <Rbt.Library>
libRbt.so (2013.1, Build901 2013/11/27)

>  <Rbt.Parameter_File>
/export/apps/rDock/src/rDock_2013.1_src/data/scripts/dock_solv.prm

>  <Rbt.Receptor>
prm/pocket_docking_3.prm

>  <SCORE>
-53.025

>  <SCORE.INTER>
-53.6641

>  <SCORE.INTER.CONST>
1

>  <SCORE.INTER.POLAR>
0

>  <SCORE.INTER.ROT>
5

>  <SCORE.INTER.SOLV>
10.4847

>  <SCORE.INTER.VDW>
-46.2043

>  <SCORE.INTER.norm>
-2.14657

>  <SCORE.INTRA>
0.639176

>  <SCORE.INTRA.DIHEDRAL>
1.73723

>  <SCORE.INTRA.DIHEDRAL.0>
2.1627

>  <SCORE.INTRA.POLAR>
0

>  <SCORE.INTRA.POLAR.0>
0

>  <SCORE.INTRA.REPUL>
0

>  <SCORE.INTRA.REPUL.0>
0

>  <SCORE.INTRA.SOLV>
0.0237855

>  <SCORE.INTRA.SOLV.lig_0>
-5.95779

>  <SCORE.INTRA.VDW>
-0.241332

>  <SCORE.INTRA.VDW.0>
3.81702

>  <SCORE.INTRA.norm>
0.025567

>  <SCORE.RESTR>
0

>  <SCORE.RESTR.CAVITY>
0

>  <SCORE.RESTR.norm>
0

>  <SCORE.SYSTEM>
0

>  <SCORE.SYSTEM.CONST>
0

>  <SCORE.SYSTEM.DIHEDRAL>
0

>  <SCORE.SYSTEM.SOLV>
0

>  <SCORE.SYSTEM.norm>
0

>  <SCORE.heavy>
25

>  <SCORE.norm>
-2.121

>  <RMSD>
0.564

$$$$
1q8n_lig
 OpenBabel11021811403D
libRbt.so/2013.1/901 2013/11/27
 25 27  0  0  0  0  0  0  0  0999 V2000
    0.6272    0.9522   -1.7663 C   0  0  0  0  0  0  0  0  0  0  0  0
    0.6125    2.0941   -2.9331 C   0  0  0  0  0  0  0  0  0  0  0  0
   -1.2193    2.4432    3.6916 N   0  0  0  0  0  0  0  0  0  0  0  0
    1.2715    3.2734   -2.8332 C   0  0  0  0  0  0  0  0  0  0  0  0
    2.6213   -4.5545   -3.0362 N   0  0  0  0  0  0  0  0  0  0  0  0
    1.2274    4.2858   -3.9135 C   0  0  0  0  0  0  0  0  0  0  0  0
    0.5149    4.0387   -5.0365 C   0  0  0  0  0  0  0  0  0  0  0  0
   -0.1897    2.7846   -5.1664 C   0  0  0  0  0  0  0  0  0  0  0  0
   -0.1438    1.8807   -4.1846 C   0  0  0  0  0  0  0  0  0  0  0  0
    0.1206    1.3659   -0.2722 C   0  0  0  0  0  0  0  0  0  0  0  0
   -0.5067    2.5389   -0.0463 C   0  0  0  0  0  0  0  0  0  0  0  0
   -0.9760    2.9330    1.3110 C   0  0  0  0  0  0  0  0  0  0  0  0
   -0.7814    2.1027    2.3703 C   0  0  0  0  0  0  0  0  0  0  0  0
   -0.0989    0.8157    2.1382 C   0  0  0  0  0  0  0  0  0  0  0  0
    0.3188    0.4774    0.9104 C   0  0  0  0  0  0  0  0  0  0  0  0
    1.1408   -0.5953   -2.0666 C   0  0  0  0  0  0  0  0  0  0  0  0
    1.9351   -0.8914   -3.3088 C   0  0  0  0  0  0  0  0  0  0  0  0
    2.3864   -2.1134   -3.6045 C   0  0  0  0  0  0  0  0  0  0  0  0
    2.1230   -3.2501   -2.7144 C   0  0  0  0  0  0  0  0  0  0  0  0
    1.4093   -3.0400   -1.5889 C   0  0  0  0  0  0  0  0  0  0  0  0
    0.8981   -1.6705   -1.2453 C   0  0  0  0  0  0  0  0  0  0  0  0
   -1.9903    3.6184    3.9617 C   0  0  0  0  0  0  0  0  0  0  0  0
   -0.8909    1.5984    4.7978 C   0  0  0  0  0  0  0  0  0  0  0  0
    3.6636   -4.7130   -4.0093 C   0  0  0  0  0  0  0  0  0  0  0  0
    2.0977   -5.7377   -2.3917 C   0  0  0  0  0  0  0  0  0  0  0  0
  1  2  1  0  0  0  0
  1 10  1  0  0  0  0
  1 16  1  0  0  0  0
  2  4  2  0  0  0  0
  2  9  1  0  0  0  0
  4  6  1  0  0  0  0
  6  7  2  0  0  0  0
  7  8  1  0  0  0  0
  8  9  2  0  0  0  0
 10 11  2  0  0  0  0
 10 15  1  0  0  0  0
 11 12  1  0  0  0  0
 12 13  2  0  0  0  0
 13  3  1  0  0  0  0
 13 14  1  0  0  0  0
 14 15  2  0  0  0  0
 16 17  2  0  0  0  0
 16 21  1  0  0  0  0
 17 18  1  0  0  0  0
 18 19  2  0  0  0  0
 19  5  1  0  0  0  0
 19 20  1  0  0  0  0
 20 21  2  0  0  0  0
 22  3  1  0  0  0  0
 23  3  1  0  0  0  0
 24  5  1  0  0  0  0
 25  5  1  0  0  0  0
M  END
>  <CHROM.1>
57.07170782,11.17916081,15.99369587,5.62729061,16.81382557,0.64900943,0.37557783
-1.18527772,3.09815715,-1.19485275,2.28598469

>  <Name>
1q8n_lig

>  <RI>
0

>  <Rbt.Current_Directory>
/home/itssahil/PROJECTS/Mol_Feturizer/New_Systems/rnas/1q8n

>  <Rbt.Executable>
rbdock ($Id: //depot/dev/client3/rdock/2013.1/src/exe/rbdock.cxx#4 $)

>  <Rbt.Library>
libRbt.so (2013.1, Build901 2013/11/27)

>  <Rbt.Parameter_File>
/export/apps/rDock/src/rDock_2013.1_src/data/scripts/dock_solv.prm

>  <Rbt.Receptor>
prm/pocket_docking_3.prm

>  <SCORE>
-52.8009

>  <SCORE.INTER>
-53.1592

>  <SCORE.INTER.CONST>
1

>  <SCORE.INTER.POLAR>
0

>  <SCORE.INTER.ROT>
5

>  <SCORE.INTER.SOLV>
10.4046

>  <SCORE.INTER.VDW>
-45.841

>  <SCORE.INTER.norm>
-2.12637

>  <SCORE.INTRA>
0.358287

>  <SCORE.INTRA.DIHEDRAL>
1.18894

>  <SCORE.INTRA.DIHEDRAL.0>
2.1627

>  <SCORE.INTRA.POLAR>
0

>  <SCORE.INTRA.POLAR.0>
0

>  <SCORE.INTRA.REPUL>
0

>  <SCORE.INTRA.REPUL.0>
0

>  <SCORE.INTRA.SOLV>
0.0186113

>  <SCORE.INTRA.SOLV.lig_0>
-5.95779

>  <SCORE.INTRA.VDW>
-0.245487

>  <SCORE.INTRA.VDW.0>
3.81702

>  <SCORE.INTRA.norm>
0.0143315

>  <SCORE.RESTR>
0

>  <SCORE.RESTR.CAVITY>
0

>  <SCORE.RESTR.norm>
0

>  <SCORE.SYSTEM>
0

>  <SCORE.SYSTEM.CONST>
0

>  <SCORE.SYSTEM.DIHEDRAL>
0

>  <SCORE.SYSTEM.SOLV>
0

>  <SCORE.SYSTEM.norm>
0

>  <SCORE.heavy>
25

>  <SCORE.norm>
-2.11204

>  <RMSD>
0.566

$$$$
1q8n_lig
 OpenBabel11021811403D
libRbt.so/2013.1/901 2013/11/27
 25 27  0  0  0  0  0  0  0  0999 V2000
    0.5807    0.8650   -1.7937 C   0  0  0  0  0  0  0  0  0  0  0  0
    0.5222    2.0013   -2.9646 C   0  0  0  0  0  0  0  0  0  0  0  0
   -1.1940    2.3828    3.6807 N   0  0  0  0  0  0  0  0  0  0  0  0
   -0.1317    1.8317   -4.1387 C   0  0  0  0  0  0  0  0  0  0  0  0
    2.4132   -4.7710   -2.6824 N   0  0  0  0  0  0  0  0  0  0  0  0
   -0.1555    2.8867   -5.1781 C   0  0  0  0  0  0  0  0  0  0  0  0
    0.4877    4.0569   -4.9617 C   0  0  0  0  0  0  0  0  0  0  0  0
    1.1855    4.2612   -3.7138 C   0  0  0  0  0  0  0  0  0  0  0  0
    1.2012    3.3016   -2.7853 C   0  0  0  0  0  0  0  0  0  0  0  0
    0.0957    1.2760   -0.2917 C   0  0  0  0  0  0  0  0  0  0  0  0
    0.4395    0.5344    0.7817 C   0  0  0  0  0  0  0  0  0  0  0  0
    0.0058    0.8946    2.1601 C   0  0  0  0  0  0  0  0  0  0  0  0
   -0.7575    2.0002    2.3704 C   0  0  0  0  0  0  0  0  0  0  0  0
   -1.1396    2.8222    1.2066 C   0  0  0  0  0  0  0  0  0  0  0  0
   -0.7420    2.4826   -0.0276 C   0  0  0  0  0  0  0  0  0  0  0  0
    1.1168   -0.6741   -2.0977 C   0  0  0  0  0  0  0  0  0  0  0  0
    1.0008   -1.7298   -1.0330 C   0  0  0  0  0  0  0  0  0  0  0  0
    1.4043   -2.9899   -1.2170 C   0  0  0  0  0  0  0  0  0  0  0  0
    1.9936   -3.4141   -2.4924 C   0  0  0  0  0  0  0  0  0  0  0  0
    2.1263   -2.5039   -3.4795 C   0  0  0  0  0  0  0  0  0  0  0  0
    1.6748   -1.0851   -3.2847 C   0  0  0  0  0  0  0  0  0  0  0  0
   -0.9072    1.5960    4.8414 C   0  0  0  0  0  0  0  0  0  0  0  0
   -1.9427    3.5871    3.8659 C   0  0  0  0  0  0  0  0  0  0  0  0
    1.8884   -5.8156   -1.8505 C   0  0  0  0  0  0  0  0  0  0  0  0
    3.3640   -5.1252   -3.7119 C   0  0  0  0  0  0  0  0  0  0  0  0
  1  2  1  0  0  0  0
  1 10  1  0  0  0  0
  1 16  1  0  0  0  0
  2  4  2  0  0  0  0
  2  9  1  0  0  0  0
  4  6  1  0  0  0  0
  6  7  2  0  0  0  0
  7  8  1  0  0  0  0
  8  9  2  0  0  0  0
 10 11  2  0  0  0  0
 10 15  1  0  0  0  0
 11 12  1  0  0  0  0
 12 13  2  0  0  0  0
 13  3  1  0  0  0  0
 13 14  1  0  0  0  0
 14 15  2  0  0  0  0
 16 17  2  0  0  0  0
 16 21  1  0  0  0  0
 17 18  1  0  0  0  0
 18 19  2  0  0  0  0
 19  5  1  0  0  0  0
 19 20  1  0  0  0  0
 20 21  2  0  0  0  0
 22  3  1  0  0  0  0
 23  3  1  0  0  0  0
 24  5  1  0  0  0  0
 25  5  1  0  0  0  0
M  END
>  <CHROM.1>
-125.31970385,-162.09146473,-172.77113719,-2.89103038,20.62683789,0.58164964
0.29572231,-1.09560120,-3.11287149,-1.21033552,2.28276341

>  <Name>
1q8n_lig

>  <RI>
0

>  <Rbt.Current_Directory>
/home/itssahil/PROJECTS/Mol_Feturizer/New_Systems/rnas/1q8n

>  <Rbt.Executable>
rbdock ($Id: //depot/dev/client3/rdock/2013.1/src/exe/rbdock.cxx#4 $)

>  <Rbt.Library>
libRbt.so (2013.1, Build901 2013/11/27)

>  <Rbt.Parameter_File>
/export/apps/rDock/src/rDock_2013.1_src/data/scripts/dock_solv.prm

>  <Rbt.Receptor>
prm/blind_docking_40.prm

>  <SCORE>
-52.4213

>  <SCORE.INTER>
-53.1293

>  <SCORE.INTER.CONST>
1

>  <SCORE.INTER.POLAR>
0

>  <SCORE.INTER.ROT>
5

>  <SCORE.INTER.SOLV>
10.5492

>  <SCORE.INTER.VDW>
-45.8693

>  <SCORE.INTER.norm>
-2.12517

>  <SCORE.INTRA>
0.707999

>  <SCORE.INTRA.DIHEDRAL>
1.61839

>  <SCORE.INTRA.DIHEDRAL.0>
2.1627

>  <SCORE.INTRA.POLAR>
0

>  <SCORE.INTRA.POLAR.0>
0

>  <SCORE.INTRA.REPUL>
0

>  <SCORE.INTRA.REPUL.0>
0

>  <SCORE.INTRA.SOLV>
0.0275447

>  <SCORE.INTRA.SOLV.lig_0>
-5.95779

>  <SCORE.INTRA.VDW>
-0.114968

>  <SCORE.INTRA.VDW.0>
3.81702

>  <SCORE.INTRA.norm>
0.02832

>  <SCORE.RESTR>
0

>  <SCORE.RESTR.CAVITY>
0

>  <SCORE.RESTR.norm>
0

>  <SCORE.SYSTEM>
0

>  <SCORE.SYSTEM.CONST>
0

>  <SCORE.SYSTEM.DIHEDRAL>
0

>  <SCORE.SYSTEM.SOLV>
0

>  <SCORE.SYSTEM.norm>
0

>  <SCORE.heavy>
25

>  <SCORE.norm>
-2.09685

>  <RMSD>
0.570

$$$$
1q8n_lig
 OpenBabel11021811413D
libRbt.so/2013.1/901 2013/11/27
 25 27  0  0  0  0  0  0  0  0999 V2000
    0.5929    1.1078   -1.7484 C   0  0  0  0  0  0  0  0  0  0  0  0
    0.5912    2.2022   -2.9599 C   0  0  0  0  0  0  0  0  0  0  0  0
    2.5795   -4.3861   -2.8852 N   0  0  0  0  0  0  0  0  0  0  0  0
    1.2651    3.3761   -2.9078 C   0  0  0  0  0  0  0  0  0  0  0  0
   -1.1948    2.3148    3.8427 N   0  0  0  0  0  0  0  0  0  0  0  0
    1.2326    4.3449   -4.0277 C   0  0  0  0  0  0  0  0  0  0  0  0
    0.5157    4.0620   -5.1395 C   0  0  0  0  0  0  0  0  0  0  0  0
   -0.2048    2.8128   -5.2186 C   0  0  0  0  0  0  0  0  0  0  0  0
   -0.1691    1.9484   -4.2015 C   0  0  0  0  0  0  0  0  0  0  0  0
    1.1382   -0.3964   -2.0650 C   0  0  0  0  0  0  0  0  0  0  0  0
    1.8395   -0.6644   -3.1861 C   0  0  0  0  0  0  0  0  0  0  0  0
    2.3451   -2.0315   -3.4915 C   0  0  0  0  0  0  0  0  0  0  0  0
    2.1089   -3.0568   -2.6298 C   0  0  0  0  0  0  0  0  0  0  0  0
    1.3454   -2.7784   -1.3988 C   0  0  0  0  0  0  0  0  0  0  0  0
    0.8960   -1.5424   -1.1403 C   0  0  0  0  0  0  0  0  0  0  0  0
    0.0578    1.4904   -0.2265 C   0  0  0  0  0  0  0  0  0  0  0  0
    0.4134    0.6044    0.9355 C   0  0  0  0  0  0  0  0  0  0  0  0
    0.0226    0.8611    2.1867 C   0  0  0  0  0  0  0  0  0  0  0  0
   -0.7903    2.0434    2.4951 C   0  0  0  0  0  0  0  0  0  0  0  0
   -1.1424    2.8686    1.4873 C   0  0  0  0  0  0  0  0  0  0  0  0
   -0.7076    2.5910    0.0770 C   0  0  0  0  0  0  0  0  0  0  0  0
    3.5332   -4.6745   -3.9127 C   0  0  0  0  0  0  0  0  0  0  0  0
    2.0984   -5.4818   -2.1022 C   0  0  0  0  0  0  0  0  0  0  0  0
   -1.9455    3.4980    4.1503 C   0  0  0  0  0  0  0  0  0  0  0  0
   -0.8667    1.4099    4.9212 C   0  0  0  0  0  0  0  0  0  0  0  0
  1  2  1  0  0  0  0
  1 10  1  0  0  0  0
  1 16  1  0  0  0  0
  2  4  2  0  0  0  0
  2  9  1  0  0  0  0
  4  6  1  0  0  0  0
  6  7  2  0  0  0  0
  7  8  1  0  0  0  0
  8  9  2  0  0  0  0
 10 11  2  0  0  0  0
 10 15  1  0  0  0  0
 11 12  1  0  0  0  0
 12 13  2  0  0  0  0
 13  3  1  0  0  0  0
 13 14  1  0  0  0  0
 14 15  2  0  0  0  0
 16 17  2  0  0  0  0
 16 21  1  0  0  0  0
 17 18  1  0  0  0  0
 18 19  2  0  0  0  0
 19  5  1  0  0  0  0
 19 20  1  0  0  0  0
 20 21  2  0  0  0  0
 22  3  1  0  0  0  0
 23  3  1  0  0  0  0
 24  5  1  0  0  0  0
 25  5  1  0  0  0  0
M  END
>  <CHROM.1>
-121.04083402,14.50711563,-163.36324646,12.23803731,177.59063434,0.62462672
0.44817996,-1.11024485,0.12512182,1.19030476,-0.88143067

>  <Name>
1q8n_lig

>  <RI>
0

>  <Rbt.Current_Directory>
/home/itssahil/PROJECTS/Mol_Feturizer/New_Systems/rnas/1q8n

>  <Rbt.Executable>
rbdock ($Id: //depot/dev/client3/rdock/2013.1/src/exe/rbdock.cxx#4 $)

>  <Rbt.Library>
libRbt.so (2013.1, Build901 2013/11/27)

>  <Rbt.Parameter_File>
/export/apps/rDock/src/rDock_2013.1_src/data/scripts/dock_solv.prm

>  <Rbt.Receptor>
prm/pocket_docking_8.prm

>  <SCORE>
-54.3319

>  <SCORE.INTER>
-54.7618

>  <SCORE.INTER.CONST>
1

>  <SCORE.INTER.POLAR>
0

>  <SCORE.INTER.ROT>
5

>  <SCORE.INTER.SOLV>
10.3011

>  <SCORE.INTER.VDW>
-46.8749

>  <SCORE.INTER.norm>
-2.19047

>  <SCORE.INTRA>
0.429897

>  <SCORE.INTRA.DIHEDRAL>
0.596257

>  <SCORE.INTRA.DIHEDRAL.0>
2.1627

>  <SCORE.INTRA.POLAR>
0

>  <SCORE.INTRA.POLAR.0>
0

>  <SCORE.INTRA.REPUL>
0

>  <SCORE.INTRA.REPUL.0>
0

>  <SCORE.INTRA.SOLV>
0.0228234

>  <SCORE.INTRA.SOLV.lig_0>
-5.95779

>  <SCORE.INTRA.VDW>
0.120356

>  <SCORE.INTRA.VDW.0>
3.81702

>  <SCORE.INTRA.norm>
0.0171959

>  <SCORE.RESTR>
0

>  <SCORE.RESTR.CAVITY>
0

>  <SCORE.RESTR.norm>
0

>  <SCORE.SYSTEM>
0

>  <SCORE.SYSTEM.CONST>
0

>  <SCORE.SYSTEM.DIHEDRAL>
0

>  <SCORE.SYSTEM.SOLV>
0

>  <SCORE.SYSTEM.norm>
0

>  <SCORE.heavy>
25

>  <SCORE.norm>
-2.17328

>  <RMSD>
0.570

$$$$
1q8n_lig
 OpenBabel11021811413D
libRbt.so/2013.1/901 2013/11/27
 25 27  0  0  0  0  0  0  0  0999 V2000
    0.6135    0.8553   -1.7884 C   0  0  0  0  0  0  0  0  0  0  0  0
    0.5913    1.9934   -2.9588 C   0  0  0  0  0  0  0  0  0  0  0  0
   -1.2203    2.3965    3.6599 N   0  0  0  0  0  0  0  0  0  0  0  0
    1.2378    3.1796   -2.8603 C   0  0  0  0  0  0  0  0  0  0  0  0
    2.3705   -4.8083   -2.6541 N   0  0  0  0  0  0  0  0  0  0  0  0
    1.1872    4.1881   -3.9439 C   0  0  0  0  0  0  0  0  0  0  0  0
    0.4813    3.9303   -5.0687 C   0  0  0  0  0  0  0  0  0  0  0  0
   -0.2100    2.6688   -5.1971 C   0  0  0  0  0  0  0  0  0  0  0  0
   -0.1584    1.7684   -4.2123 C   0  0  0  0  0  0  0  0  0  0  0  0
    0.1123    1.2727   -0.2935 C   0  0  0  0  0  0  0  0  0  0  0  0
    0.4432    0.5349    0.7865 C   0  0  0  0  0  0  0  0  0  0  0  0
   -0.0055    0.9009    2.1586 C   0  0  0  0  0  0  0  0  0  0  0  0
   -0.7697    2.0083    2.3561 C   0  0  0  0  0  0  0  0  0  0  0  0
   -1.1377    2.8262    1.1849 C   0  0  0  0  0  0  0  0  0  0  0  0
   -0.7268    2.4813   -0.0435 C   0  0  0  0  0  0  0  0  0  0  0  0
    1.1293   -0.6920   -2.0859 C   0  0  0  0  0  0  0  0  0  0  0  0
    0.9927   -1.7434   -1.0194 C   0  0  0  0  0  0  0  0  0  0  0  0
    1.3793   -3.0095   -1.1983 C   0  0  0  0  0  0  0  0  0  0  0  0
    1.9692   -3.4451   -2.4695 C   0  0  0  0  0  0  0  0  0  0  0  0
    2.1200   -2.5393   -3.4581 C   0  0  0  0  0  0  0  0  0  0  0  0
    1.6877   -1.1138   -3.2690 C   0  0  0  0  0  0  0  0  0  0  0  0
   -1.9610    3.6003    3.8850 C   0  0  0  0  0  0  0  0  0  0  0  0
   -0.9361    1.5724    4.7936 C   0  0  0  0  0  0  0  0  0  0  0  0
    3.3063   -5.1557   -3.6846 C   0  0  0  0  0  0  0  0  0  0  0  0
    1.8537   -5.8631   -1.8115 C   0  0  0  0  0  0  0  0  0  0  0  0
  1  2  1  0  0  0  0
  1 10  1  0  0  0  0
  1 16  1  0  0  0  0
  2  4  2  0  0  0  0
  2  9  1  0  0  0  0
  4  6  1  0  0  0  0
  6  7  2  0  0  0  0
  7  8  1  0  0  0  0
  8  9  2  0  0  0  0
 10 11  2  0  0  0  0
 10 15  1  0  0  0  0
 11 12  1  0  0  0  0
 12 13  2  0  0  0  0
 13  3  1  0  0  0  0
 13 14  1  0  0  0  0
 14 15  2  0  0  0  0
 16 17  2  0  0  0  0
 16 21  1  0  0  0  0
 17 18  1  0  0  0  0
 18 19  2  0  0  0  0
 19  5  1  0  0  0  0
 19 20  1  0  0  0  0
 20 21  2  0  0  0  0
 22  3  1  0  0  0  0
 23  3  1  0  0  0  0
 24  5  1  0  0  0  0
 25  5  1  0  0  0  0
M  END
>  <CHROM.1>
56.43387344,-161.16170970,-173.38644227,176.40928939,-160.24725611,0.57330735
0.26121961,-1.11097358,-3.12690986,-1.21178764,2.27707488

>  <Name>
1q8n_lig

>  <RI>
0

>  <Rbt.Current_Directory>
/home/itssahil/PROJECTS/Mol_Feturizer/New_Systems/rnas/1q8n

>  <Rbt.Executable>
rbdock ($Id: //depot/dev/client3/rdock/2013.1/src/exe/rbdock.cxx#4 $)

>  <Rbt.Library>
libRbt.so (2013.1, Build901 2013/11/27)

>  <Rbt.Parameter_File>
/export/apps/rDock/src/rDock_2013.1_src/data/scripts/dock_solv.prm

>  <Rbt.Receptor>
prm/pocket_docking_7.prm

>  <SCORE>
-52.8319

>  <SCORE.INTER>
-53.5461

>  <SCORE.INTER.CONST>
1

>  <SCORE.INTER.POLAR>
0

>  <SCORE.INTER.ROT>
5

>  <SCORE.INTER.SOLV>
10.4267

>  <SCORE.INTER.VDW>
-46.1063

>  <SCORE.INTER.norm>
-2.14184

>  <SCORE.INTRA>
0.714235

>  <SCORE.INTRA.DIHEDRAL>
1.50951

>  <SCORE.INTRA.DIHEDRAL.0>
2.1627

>  <SCORE.INTRA.POLAR>
0

>  <SCORE.INTRA.POLAR.0>
0

>  <SCORE.INTRA.REPUL>
0

>  <SCORE.INTRA.REPUL.0>
0

>  <SCORE.INTRA.SOLV>
0.0251826

>  <SCORE.INTRA.SOLV.lig_0>
-5.95779

>  <SCORE.INTRA.VDW>
-0.0531099

>  <SCORE.INTRA.VDW.0>
3.81702

>  <SCORE.INTRA.norm>
0.0285694

>  <SCORE.RESTR>
0

>  <SCORE.RESTR.CAVITY>
0

>  <SCORE.RESTR.norm>
0

>  <SCORE.SYSTEM>
0

>  <SCORE.SYSTEM.CONST>
0

>  <SCORE.SYSTEM.DIHEDRAL>
0

>  <SCORE.SYSTEM.SOLV>
0

>  <SCORE.SYSTEM.norm>
0

>  <SCORE.heavy>
25

>  <SCORE.norm>
-2.11327

>  <RMSD>
0.571

$$$$
1q8n_lig
 OpenBabel11021811403D
libRbt.so/2013.1/901 2013/11/27
 25 27  0  0  0  0  0  0  0  0999 V2000
    0.6094    0.8512   -1.7917 C   0  0  0  0  0  0  0  0  0  0  0  0
    0.5822    1.9890   -2.9621 C   0  0  0  0  0  0  0  0  0  0  0  0
   -1.2201    2.3881    3.6593 N   0  0  0  0  0  0  0  0  0  0  0  0
    1.2252    3.1773   -2.8645 C   0  0  0  0  0  0  0  0  0  0  0  0
    2.3806   -4.8077   -2.6592 N   0  0  0  0  0  0  0  0  0  0  0  0
    1.1702    4.1855   -3.9482 C   0  0  0  0  0  0  0  0  0  0  0  0
    0.4637    3.9254   -5.0721 C   0  0  0  0  0  0  0  0  0  0  0  0
   -0.2238    2.6617   -5.1996 C   0  0  0  0  0  0  0  0  0  0  0  0
   -0.1682    1.7616   -4.2148 C   0  0  0  0  0  0  0  0  0  0  0  0
    0.1093    1.2674   -0.2961 C   0  0  0  0  0  0  0  0  0  0  0  0
    0.4357    0.5252    0.7823 C   0  0  0  0  0  0  0  0  0  0  0  0
   -0.0119    0.8901    2.1551 C   0  0  0  0  0  0  0  0  0  0  0  0
   -0.7706    2.0008    2.3548 C   0  0  0  0  0  0  0  0  0  0  0  0
   -1.1337    2.8235    1.1854 C   0  0  0  0  0  0  0  0  0  0  0  0
   -0.7238    2.4796   -0.0435 C   0  0  0  0  0  0  0  0  0  0  0  0
    1.1289   -0.6948   -2.0898 C   0  0  0  0  0  0  0  0  0  0  0  0
    0.9982   -1.7461   -1.0224 C   0  0  0  0  0  0  0  0  0  0  0  0
    1.3880   -3.0111   -1.2017 C   0  0  0  0  0  0  0  0  0  0  0  0
    1.9758   -3.4456   -2.4743 C   0  0  0  0  0  0  0  0  0  0  0  0
    2.1213   -2.5399   -3.4637 C   0  0  0  0  0  0  0  0  0  0  0  0
    1.6853   -1.1155   -3.2742 C   0  0  0  0  0  0  0  0  0  0  0  0
   -1.9537    3.5957    3.8871 C   0  0  0  0  0  0  0  0  0  0  0  0
   -0.9420    1.5591    4.7909 C   0  0  0  0  0  0  0  0  0  0  0  0
    1.8678   -5.8392   -1.8039 C   0  0  0  0  0  0  0  0  0  0  0  0
    3.3041   -5.1803   -3.7070 C   0  0  0  0  0  0  0  0  0  0  0  0
  1  2  1  0  0  0  0
  1 10  1  0  0  0  0
  1 16  1  0  0  0  0
  2  4  2  0  0  0  0
  2  9  1  0  0  0  0
  4  6  1  0  0  0  0
  6  7  2  0  0  0  0
  7  8  1  0  0  0  0
  8  9  2  0  0  0  0
 10 11  2  0  0  0  0
 10 15  1  0  0  0  0
 11 12  1  0  0  0  0
 12 13  2  0  0  0  0
 13  3  1  0  0  0  0
 13 14  1  0  0  0  0
 14 15  2  0  0  0  0
 16 17  2  0  0  0  0
 16 21  1  0  0  0  0
 17 18  1  0  0  0  0
 18 19  2  0  0  0  0
 19  5  1  0  0  0  0
 19 20  1  0  0  0  0
 20 21  2  0  0  0  0
 22  3  1  0  0  0  0
 23  3  1  0  0  0  0
 24  5  1  0  0  0  0
 25  5  1  0  0  0  0
M  END
>  <CHROM.1>
56.40533107,-161.64925824,-173.45592723,176.34693679,19.04329947,0.57138462
0.25696090,-1.11425569,-3.13474968,-1.21109371,2.26991863

>  <Name>
1q8n_lig

>  <RI>
0

>  <Rbt.Current_Directory>
/home/itssahil/PROJECTS/Mol_Feturizer/New_Systems/rnas/1q8n

>  <Rbt.Executable>
rbdock ($Id: //depot/dev/client3/rdock/2013.1/src/exe/rbdock.cxx#4 $)

>  <Rbt.Library>
libRbt.so (2013.1, Build901 2013/11/27)

>  <Rbt.Parameter_File>
/export/apps/rDock/src/rDock_2013.1_src/data/scripts/dock_solv.prm

>  <Rbt.Receptor>
prm/pocket_docking_5.prm

>  <SCORE>
-52.973

>  <SCORE.INTER>
-53.6547

>  <SCORE.INTER.CONST>
1

>  <SCORE.INTER.POLAR>
0

>  <SCORE.INTER.ROT>
5

>  <SCORE.INTER.SOLV>
10.424

>  <SCORE.INTER.VDW>
-46.1778

>  <SCORE.INTER.norm>
-2.14619

>  <SCORE.INTRA>
0.681658

>  <SCORE.INTRA.DIHEDRAL>
1.41198

>  <SCORE.INTRA.DIHEDRAL.0>
2.1627

>  <SCORE.INTRA.POLAR>
0

>  <SCORE.INTRA.POLAR.0>
0

>  <SCORE.INTRA.REPUL>
0

>  <SCORE.INTRA.REPUL.0>
0

>  <SCORE.INTRA.SOLV>
0.0256157

>  <SCORE.INTRA.SOLV.lig_0>
-5.95779

>  <SCORE.INTRA.VDW>
-0.0371418

>  <SCORE.INTRA.VDW.0>
3.81702

>  <SCORE.INTRA.norm>
0.0272663

>  <SCORE.RESTR>
0

>  <SCORE.RESTR.CAVITY>
0

>  <SCORE.RESTR.norm>
0

>  <SCORE.SYSTEM>
0

>  <SCORE.SYSTEM.CONST>
0

>  <SCORE.SYSTEM.DIHEDRAL>
0

>  <SCORE.SYSTEM.SOLV>
0

>  <SCORE.SYSTEM.norm>
0

>  <SCORE.heavy>
25

>  <SCORE.norm>
-2.11892

>  <RMSD>
0.576

$$$$
1q8n_lig
 OpenBabel11021811413D
libRbt.so/2013.1/901 2013/11/27
 25 27  0  0  0  0  0  0  0  0999 V2000
    0.6071    0.8825   -1.7855 C   0  0  0  0  0  0  0  0  0  0  0  0
    0.5853    2.0169   -2.9594 C   0  0  0  0  0  0  0  0  0  0  0  0
   -1.2220    2.4040    3.6699 N   0  0  0  0  0  0  0  0  0  0  0  0
    1.2240    3.2073   -2.8605 C   0  0  0  0  0  0  0  0  0  0  0  0
    2.3725   -4.7818   -2.6291 N   0  0  0  0  0  0  0  0  0  0  0  0
    1.1742    4.2123   -3.9474 C   0  0  0  0  0  0  0  0  0  0  0  0
    0.4768    3.9469   -5.0758 C   0  0  0  0  0  0  0  0  0  0  0  0
   -0.2061    2.6808   -5.2047 C   0  0  0  0  0  0  0  0  0  0  0  0
   -0.1552    1.7837   -4.2169 C   0  0  0  0  0  0  0  0  0  0  0  0
    0.1045    1.3044   -0.2923 C   0  0  0  0  0  0  0  0  0  0  0  0
   -0.6589    2.3991   -0.0946 C   0  0  0  0  0  0  0  0  0  0  0  0
   -1.1268    2.7994    1.2614 C   0  0  0  0  0  0  0  0  0  0  0  0
   -0.7908    2.0548    2.3486 C   0  0  0  0  0  0  0  0  0  0  0  0
    0.0417    0.8537    2.1478 C   0  0  0  0  0  0  0  0  0  0  0  0
    0.4558    0.5088    0.9206 C   0  0  0  0  0  0  0  0  0  0  0  0
    1.1237   -0.6655   -2.0778 C   0  0  0  0  0  0  0  0  0  0  0  0
    1.0178   -1.7055   -0.9967 C   0  0  0  0  0  0  0  0  0  0  0  0
    1.4066   -2.9715   -1.1705 C   0  0  0  0  0  0  0  0  0  0  0  0
    1.9687   -3.4186   -2.4503 C   0  0  0  0  0  0  0  0  0  0  0  0
    2.0914   -2.5233   -3.4522 C   0  0  0  0  0  0  0  0  0  0  0  0
    1.6563   -1.0978   -3.2689 C   0  0  0  0  0  0  0  0  0  0  0  0
   -0.9444    1.5799    4.8067 C   0  0  0  0  0  0  0  0  0  0  0  0
   -1.9557    3.6115    3.8911 C   0  0  0  0  0  0  0  0  0  0  0  0
    3.3195   -5.1298   -3.6492 C   0  0  0  0  0  0  0  0  0  0  0  0
    1.8474   -5.8359   -1.7909 C   0  0  0  0  0  0  0  0  0  0  0  0
  1  2  1  0  0  0  0
  1 10  1  0  0  0  0
  1 16  1  0  0  0  0
  2  4  2  0  0  0  0
  2  9  1  0  0  0  0
  4  6  1  0  0  0  0
  6  7  2  0  0  0  0
  7  8  1  0  0  0  0
  8  9  2  0  0  0  0
 10 11  2  0  0  0  0
 10 15  1  0  0  0  0
 11 12  1  0  0  0  0
 12 13  2  0  0  0  0
 13  3  1  0  0  0  0
 13 14  1  0  0  0  0
 14 15  2  0  0  0  0
 16 17  2  0  0  0  0
 16 21  1  0  0  0  0
 17 18  1  0  0  0  0
 18 19  2  0  0  0  0
 19  5  1  0  0  0  0
 19 20  1  0  0  0  0
 20 21  2  0  0  0  0
 22  3  1  0  0  0  0
 23  3  1  0  0  0  0
 24  5  1  0  0  0  0
 25  5  1  0  0  0  0
M  END
>  <CHROM.1>
55.98751545,18.96044733,-174.88196623,175.93062410,-158.18775639,0.57595987
0.27346048,-1.09802321,-3.13833791,-1.21175140,2.26994461

>  <Name>
1q8n_lig

>  <RI>
0

>  <Rbt.Current_Directory>
/home/itssahil/PROJECTS/Mol_Feturizer/New_Systems/rnas/1q8n

>  <Rbt.Executable>
rbdock ($Id: //depot/dev/client3/rdock/2013.1/src/exe/rbdock.cxx#4 $)

>  <Rbt.Library>
libRbt.so (2013.1, Build901 2013/11/27)

>  <Rbt.Parameter_File>
/export/apps/rDock/src/rDock_2013.1_src/data/scripts/dock_solv.prm

>  <Rbt.Receptor>
prm/pocket_docking_8.prm

>  <SCORE>
-52.8692

>  <SCORE.INTER>
-53.5747

>  <SCORE.INTER.CONST>
1

>  <SCORE.INTER.POLAR>
0

>  <SCORE.INTER.ROT>
5

>  <SCORE.INTER.SOLV>
10.465

>  <SCORE.INTER.VDW>
-46.1381

>  <SCORE.INTER.norm>
-2.14299

>  <SCORE.INTRA>
0.705439

>  <SCORE.INTRA.DIHEDRAL>
1.82714

>  <SCORE.INTRA.DIHEDRAL.0>
2.1627

>  <SCORE.INTRA.POLAR>
0

>  <SCORE.INTRA.POLAR.0>
0

>  <SCORE.INTRA.REPUL>
0

>  <SCORE.INTRA.REPUL.0>
0

>  <SCORE.INTRA.SOLV>
0.0271678

>  <SCORE.INTRA.SOLV.lig_0>
-5.95779

>  <SCORE.INTRA.VDW>
-0.221713

>  <SCORE.INTRA.VDW.0>
3.81702

>  <SCORE.INTRA.norm>
0.0282176

>  <SCORE.RESTR>
0

>  <SCORE.RESTR.CAVITY>
0

>  <SCORE.RESTR.norm>
0

>  <SCORE.SYSTEM>
0

>  <SCORE.SYSTEM.CONST>
0

>  <SCORE.SYSTEM.DIHEDRAL>
0

>  <SCORE.SYSTEM.SOLV>
0

>  <SCORE.SYSTEM.norm>
0

>  <SCORE.heavy>
25

>  <SCORE.norm>
-2.11477

>  <RMSD>
0.576

$$$$
1q8n_lig
 OpenBabel11021811413D
libRbt.so/2013.1/901 2013/11/27
 25 27  0  0  0  0  0  0  0  0999 V2000
    0.5728    0.8623   -1.7801 C   0  0  0  0  0  0  0  0  0  0  0  0
    0.5160    1.9943   -2.9552 C   0  0  0  0  0  0  0  0  0  0  0  0
   -1.2086    2.4005    3.6864 N   0  0  0  0  0  0  0  0  0  0  0  0
   -0.1236    1.8147   -4.1357 C   0  0  0  0  0  0  0  0  0  0  0  0
    2.4076   -4.7767   -2.6448 N   0  0  0  0  0  0  0  0  0  0  0  0
   -0.1463    2.8662   -5.1787 C   0  0  0  0  0  0  0  0  0  0  0  0
    0.4833    4.0432   -4.9592 C   0  0  0  0  0  0  0  0  0  0  0  0
    1.1657    4.2580   -3.7046 C   0  0  0  0  0  0  0  0  0  0  0  0
    1.1806    3.3016   -2.7729 C   0  0  0  0  0  0  0  0  0  0  0  0
    0.0855    1.2788   -0.2803 C   0  0  0  0  0  0  0  0  0  0  0  0
    0.3502    0.4934    0.7844 C   0  0  0  0  0  0  0  0  0  0  0  0
   -0.0869    0.8578    2.1606 C   0  0  0  0  0  0  0  0  0  0  0  0
   -0.7720    2.0123    2.3779 C   0  0  0  0  0  0  0  0  0  0  0  0
   -1.0668    2.8824    1.2237 C   0  0  0  0  0  0  0  0  0  0  0  0
   -0.6676    2.5383   -0.0087 C   0  0  0  0  0  0  0  0  0  0  0  0
    1.1093   -0.6779   -2.0776 C   0  0  0  0  0  0  0  0  0  0  0  0
    0.9973   -1.7282   -1.0072 C   0  0  0  0  0  0  0  0  0  0  0  0
    1.4014   -2.9888   -1.1858 C   0  0  0  0  0  0  0  0  0  0  0  0
    1.9874   -3.4192   -2.4606 C   0  0  0  0  0  0  0  0  0  0  0  0
    2.1165   -2.5140   -3.4529 C   0  0  0  0  0  0  0  0  0  0  0  0
    1.6643   -1.0945   -3.2641 C   0  0  0  0  0  0  0  0  0  0  0  0
   -0.9258    1.6165    4.8500 C   0  0  0  0  0  0  0  0  0  0  0  0
   -1.9534    3.6080    3.8669 C   0  0  0  0  0  0  0  0  0  0  0  0
    1.8844   -5.8177   -1.8075 C   0  0  0  0  0  0  0  0  0  0  0  0
    3.3574   -5.1351   -3.6737 C   0  0  0  0  0  0  0  0  0  0  0  0
  1  2  1  0  0  0  0
  1 10  1  0  0  0  0
  1 16  1  0  0  0  0
  2  4  2  0  0  0  0
  2  9  1  0  0  0  0
  4  6  1  0  0  0  0
  6  7  2  0  0  0  0
  7  8  1  0  0  0  0
  8  9  2  0  0  0  0
 10 11  2  0  0  0  0
 10 15  1  0  0  0  0
 11 12  1  0  0  0  0
 12 13  2  0  0  0  0
 13  3  1  0  0  0  0
 13 14  1  0  0  0  0
 14 15  2  0  0  0  0
 16 17  2  0  0  0  0
 16 21  1  0  0  0  0
 17 18  1  0  0  0  0
 18 19  2  0  0  0  0
 19  5  1  0  0  0  0
 19 20  1  0  0  0  0
 20 21  2  0  0  0  0
 22  3  1  0  0  0  0
 23  3  1  0  0  0  0
 24  5  1  0  0  0  0
 25  5  1  0  0  0  0
M  END
>  <CHROM.1>
-126.08208013,-166.65621038,-173.03902970,1.48990647,20.73171676,0.57353935
0.29613250,-1.07948840,-3.10454398,-1.21033687,2.28652123

>  <Name>
1q8n_lig

>  <RI>
0

>  <Rbt.Current_Directory>
/home/itssahil/PROJECTS/Mol_Feturizer/New_Systems/rnas/1q8n

>  <Rbt.Executable>
rbdock ($Id: //depot/dev/client3/rdock/2013.1/src/exe/rbdock.cxx#4 $)

>  <Rbt.Library>
libRbt.so (2013.1, Build901 2013/11/27)

>  <Rbt.Parameter_File>
/export/apps/rDock/src/rDock_2013.1_src/data/scripts/dock_solv.prm

>  <Rbt.Receptor>
prm/pocket_docking_7.prm

>  <SCORE>
-52.3278

>  <SCORE.INTER>
-53.1543

>  <SCORE.INTER.CONST>
1

>  <SCORE.INTER.POLAR>
0

>  <SCORE.INTER.ROT>
5

>  <SCORE.INTER.SOLV>
10.5247

>  <SCORE.INTER.VDW>
-45.8777

>  <SCORE.INTER.norm>
-2.12617

>  <SCORE.INTRA>
0.826436

>  <SCORE.INTRA.DIHEDRAL>
1.60992

>  <SCORE.INTRA.DIHEDRAL.0>
2.1627

>  <SCORE.INTRA.POLAR>
0

>  <SCORE.INTRA.POLAR.0>
0

>  <SCORE.INTRA.REPUL>
0

>  <SCORE.INTRA.REPUL.0>
0

>  <SCORE.INTRA.SOLV>
0.0316926

>  <SCORE.INTRA.SOLV.lig_0>
-5.95779

>  <SCORE.INTRA.VDW>
0.0056275

>  <SCORE.INTRA.VDW.0>
3.81702

>  <SCORE.INTRA.norm>
0.0330574

>  <SCORE.RESTR>
0

>  <SCORE.RESTR.CAVITY>
0

>  <SCORE.RESTR.norm>
0

>  <SCORE.SYSTEM>
0

>  <SCORE.SYSTEM.CONST>
0

>  <SCORE.SYSTEM.DIHEDRAL>
0

>  <SCORE.SYSTEM.SOLV>
0

>  <SCORE.SYSTEM.norm>
0

>  <SCORE.heavy>
25

>  <SCORE.norm>
-2.09311

>  <RMSD>
0.577

$$$$
1q8n_lig
 OpenBabel11021811403D
libRbt.so/2013.1/901 2013/11/27
 25 27  0  0  0  0  0  0  0  0999 V2000
    0.6425    0.9267   -1.7635 C   0  0  0  0  0  0  0  0  0  0  0  0
    0.6283    2.0745   -2.9245 C   0  0  0  0  0  0  0  0  0  0  0  0
   -1.2044    2.4291    3.6911 N   0  0  0  0  0  0  0  0  0  0  0  0
    1.2718    3.2610   -2.8104 C   0  0  0  0  0  0  0  0  0  0  0  0
    2.6300   -4.5754   -3.0634 N   0  0  0  0  0  0  0  0  0  0  0  0
    1.2287    4.2785   -3.8859 C   0  0  0  0  0  0  0  0  0  0  0  0
    0.5331    4.0289   -5.0189 C   0  0  0  0  0  0  0  0  0  0  0  0
   -0.1548    2.7673   -5.1640 C   0  0  0  0  0  0  0  0  0  0  0  0
   -0.1100    1.8587   -4.1863 C   0  0  0  0  0  0  0  0  0  0  0  0
    0.1366    1.3332   -0.2672 C   0  0  0  0  0  0  0  0  0  0  0  0
    0.2614    0.4787    0.7694 C   0  0  0  0  0  0  0  0  0  0  0  0
   -0.1949    0.8329    2.1421 C   0  0  0  0  0  0  0  0  0  0  0  0
   -0.7544    2.0484    2.3849 C   0  0  0  0  0  0  0  0  0  0  0  0
   -0.8954    2.9942    1.2617 C   0  0  0  0  0  0  0  0  0  0  0  0
   -0.4811    2.6584    0.0320 C   0  0  0  0  0  0  0  0  0  0  0  0
    1.1547   -0.6197   -2.0719 C   0  0  0  0  0  0  0  0  0  0  0  0
    1.9386   -0.9122   -3.3215 C   0  0  0  0  0  0  0  0  0  0  0  0
    2.3884   -2.1331   -3.6239 C   0  0  0  0  0  0  0  0  0  0  0  0
    2.1335   -3.2721   -2.7343 C   0  0  0  0  0  0  0  0  0  0  0  0
    1.4292   -3.0653   -1.6022 C   0  0  0  0  0  0  0  0  0  0  0  0
    0.9199   -1.6970   -1.2511 C   0  0  0  0  0  0  0  0  0  0  0  0
   -1.9582    3.6238    3.9212 C   0  0  0  0  0  0  0  0  0  0  0  0
   -0.9060    1.6066    4.8224 C   0  0  0  0  0  0  0  0  0  0  0  0
    2.0927   -5.7399   -2.4203 C   0  0  0  0  0  0  0  0  0  0  0  0
    3.6730   -4.7543   -4.0482 C   0  0  0  0  0  0  0  0  0  0  0  0
  1  2  1  0  0  0  0
  1 10  1  0  0  0  0
  1 16  1  0  0  0  0
  2  4  2  0  0  0  0
  2  9  1  0  0  0  0
  4  6  1  0  0  0  0
  6  7  2  0  0  0  0
  7  8  1  0  0  0  0
  8  9  2  0  0  0  0
 10 11  2  0  0  0  0
 10 15  1  0  0  0  0
 11 12  1  0  0  0  0
 12 13  2  0  0  0  0
 13  3  1  0  0  0  0
 13 14  1  0  0  0  0
 14 15  2  0  0  0  0
 16 17  2  0  0  0  0
 16 21  1  0  0  0  0
 17 18  1  0  0  0  0
 18 19  2  0  0  0  0
 19  5  1  0  0  0  0
 19 20  1  0  0  0  0
 20 21  2  0  0  0  0
 22  3  1  0  0  0  0
 23  3  1  0  0  0  0
 24  5  1  0  0  0  0
 25  5  1  0  0  0  0
M  END
>  <CHROM.1>
56.04446919,-172.58626303,15.49126704,-171.15666160,-162.79830355,0.65809898
0.36767913,-1.19359219,3.11346731,-1.19694426,2.29805676

>  <Name>
1q8n_lig

>  <RI>
0

>  <Rbt.Current_Directory>
/home/itssahil/PROJECTS/Mol_Feturizer/New_Systems/rnas/1q8n

>  <Rbt.Executable>
rbdock ($Id: //depot/dev/client3/rdock/2013.1/src/exe/rbdock.cxx#4 $)

>  <Rbt.Library>
libRbt.so (2013.1, Build901 2013/11/27)

>  <Rbt.Parameter_File>
/export/apps/rDock/src/rDock_2013.1_src/data/scripts/dock_solv.prm

>  <Rbt.Receptor>
prm/pocket_docking_5.prm

>  <SCORE>
-52.8929

>  <SCORE.INTER>
-53.4515

>  <SCORE.INTER.CONST>
1

>  <SCORE.INTER.POLAR>
0

>  <SCORE.INTER.ROT>
5

>  <SCORE.INTER.SOLV>
10.3734

>  <SCORE.INTER.VDW>
-46.0255

>  <SCORE.INTER.norm>
-2.13806

>  <SCORE.INTRA>
0.558572

>  <SCORE.INTRA.DIHEDRAL>
1.41782

>  <SCORE.INTRA.DIHEDRAL.0>
2.1627

>  <SCORE.INTRA.POLAR>
0

>  <SCORE.INTRA.POLAR.0>
0

>  <SCORE.INTRA.REPUL>
0

>  <SCORE.INTRA.REPUL.0>
0

>  <SCORE.INTRA.SOLV>
0.0214834

>  <SCORE.INTRA.SOLV.lig_0>
-5.95779

>  <SCORE.INTRA.VDW>
-0.161081

>  <SCORE.INTRA.VDW.0>
3.81702

>  <SCORE.INTRA.norm>
0.0223429

>  <SCORE.RESTR>
0

>  <SCORE.RESTR.CAVITY>
0

>  <SCORE.RESTR.norm>
0

>  <SCORE.SYSTEM>
0

>  <SCORE.SYSTEM.CONST>
0

>  <SCORE.SYSTEM.DIHEDRAL>
0

>  <SCORE.SYSTEM.SOLV>
0

>  <SCORE.SYSTEM.norm>
0

>  <SCORE.heavy>
25

>  <SCORE.norm>
-2.11572

>  <RMSD>
0.580

$$$$
1q8n_lig
 OpenBabel11021811403D
libRbt.so/2013.1/901 2013/11/27
 25 27  0  0  0  0  0  0  0  0999 V2000
    0.6352    0.8484   -1.7989 C   0  0  0  0  0  0  0  0  0  0  0  0
    0.6033    1.9898   -2.9658 C   0  0  0  0  0  0  0  0  0  0  0  0
   -1.1870    2.3645    3.6603 N   0  0  0  0  0  0  0  0  0  0  0  0
    1.2470    3.1776   -2.8674 C   0  0  0  0  0  0  0  0  0  0  0  0
    2.4153   -4.8043   -2.6883 N   0  0  0  0  0  0  0  0  0  0  0  0
    1.1876    4.1891   -3.9477 C   0  0  0  0  0  0  0  0  0  0  0  0
    0.4762    3.9325   -5.0694 C   0  0  0  0  0  0  0  0  0  0  0  0
   -0.2122    2.6694   -5.1977 C   0  0  0  0  0  0  0  0  0  0  0  0
   -0.1526    1.7663   -4.2159 C   0  0  0  0  0  0  0  0  0  0  0  0
    0.1371    1.2589   -0.3010 C   0  0  0  0  0  0  0  0  0  0  0  0
    0.4648    0.5125    0.7740 C   0  0  0  0  0  0  0  0  0  0  0  0
    0.0190    0.8721    2.1487 C   0  0  0  0  0  0  0  0  0  0  0  0
   -0.7393    1.9822    2.3537 C   0  0  0  0  0  0  0  0  0  0  0  0
   -1.1036    2.8095    1.1880 C   0  0  0  0  0  0  0  0  0  0  0  0
   -0.6954    2.4703   -0.0428 C   0  0  0  0  0  0  0  0  0  0  0  0
    1.1575   -0.6955   -2.1028 C   0  0  0  0  0  0  0  0  0  0  0  0
    1.0212   -1.7530   -1.0422 C   0  0  0  0  0  0  0  0  0  0  0  0
    1.4130   -3.0167   -1.2265 C   0  0  0  0  0  0  0  0  0  0  0  0
    2.0086   -3.4435   -2.4980 C   0  0  0  0  0  0  0  0  0  0  0  0
    2.1593   -2.5320   -3.4813 C   0  0  0  0  0  0  0  0  0  0  0  0
    1.7213   -1.1090   -3.2862 C   0  0  0  0  0  0  0  0  0  0  0  0
   -1.9514    3.5528    3.8884 C   0  0  0  0  0  0  0  0  0  0  0  0
   -0.8755    1.5501    4.7938 C   0  0  0  0  0  0  0  0  0  0  0  0
    1.8810   -5.8440   -1.8566 C   0  0  0  0  0  0  0  0  0  0  0  0
    3.3625   -5.1672   -3.7183 C   0  0  0  0  0  0  0  0  0  0  0  0
  1  2  1  0  0  0  0
  1 10  1  0  0  0  0
  1 16  1  0  0  0  0
  2  4  2  0  0  0  0
  2  9  1  0  0  0  0
  4  6  1  0  0  0  0
  6  7  2  0  0  0  0
  7  8  1  0  0  0  0
  8  9  2  0  0  0  0
 10 11  2  0  0  0  0
 10 15  1  0  0  0  0
 11 12  1  0  0  0  0
 12 13  2  0  0  0  0
 13  3  1  0  0  0  0
 13 14  1  0  0  0  0
 14 15  2  0  0  0  0
 16 17  2  0  0  0  0
 16 21  1  0  0  0  0
 17 18  1  0  0  0  0
 18 19  2  0  0  0  0
 19  5  1  0  0  0  0
 19 20  1  0  0  0  0
 20 21  2  0  0  0  0
 22  3  1  0  0  0  0
 23  3  1  0  0  0  0
 24  5  1  0  0  0  0
 25  5  1  0  0  0  0
M  END
>  <CHROM.1>
56.59831573,-161.79896563,-172.97165936,178.09351804,20.09347899,0.59940766
0.25198165,-1.12345915,3.14108912,-1.21054907,2.26612218

>  <Name>
1q8n_lig

>  <RI>
0

>  <Rbt.Current_Directory>
/home/itssahil/PROJECTS/Mol_Feturizer/New_Systems/rnas/1q8n

>  <Rbt.Executable>
rbdock ($Id: //depot/dev/client3/rdock/2013.1/src/exe/rbdock.cxx#4 $)

>  <Rbt.Library>
libRbt.so (2013.1, Build901 2013/11/27)

>  <Rbt.Parameter_File>
/export/apps/rDock/src/rDock_2013.1_src/data/scripts/dock_solv.prm

>  <Rbt.Receptor>
prm/blind_docking_100.prm

>  <SCORE>
-52.96

>  <SCORE.INTER>
-53.6535

>  <SCORE.INTER.CONST>
1

>  <SCORE.INTER.POLAR>
0

>  <SCORE.INTER.ROT>
5

>  <SCORE.INTER.SOLV>
10.3913

>  <SCORE.INTER.VDW>
-46.1661

>  <SCORE.INTER.norm>
-2.14614

>  <SCORE.INTRA>
0.693496

>  <SCORE.INTRA.DIHEDRAL>
1.52229

>  <SCORE.INTRA.DIHEDRAL.0>
2.1627

>  <SCORE.INTRA.POLAR>
0

>  <SCORE.INTRA.POLAR.0>
0

>  <SCORE.INTRA.REPUL>
0

>  <SCORE.INTRA.REPUL.0>
0

>  <SCORE.INTRA.SOLV>
0.025312

>  <SCORE.INTRA.SOLV.lig_0>
-5.95779

>  <SCORE.INTRA.VDW>
-0.0803046

>  <SCORE.INTRA.VDW.0>
3.81702

>  <SCORE.INTRA.norm>
0.0277398

>  <SCORE.RESTR>
0

>  <SCORE.RESTR.CAVITY>
0

>  <SCORE.RESTR.norm>
0

>  <SCORE.SYSTEM>
0

>  <SCORE.SYSTEM.CONST>
0

>  <SCORE.SYSTEM.DIHEDRAL>
0

>  <SCORE.SYSTEM.SOLV>
0

>  <SCORE.SYSTEM.norm>
0

>  <SCORE.heavy>
25

>  <SCORE.norm>
-2.1184

>  <RMSD>
0.581

$$$$
1q8n_lig
 OpenBabel11021811403D
libRbt.so/2013.1/901 2013/11/27
 25 27  0  0  0  0  0  0  0  0999 V2000
    0.5854    1.0960   -1.7778 C   0  0  0  0  0  0  0  0  0  0  0  0
    0.5854    2.1988   -2.9817 C   0  0  0  0  0  0  0  0  0  0  0  0
    2.5645   -4.3926   -2.9528 N   0  0  0  0  0  0  0  0  0  0  0  0
    1.2566    3.3737   -2.9191 C   0  0  0  0  0  0  0  0  0  0  0  0
   -1.1992    2.2682    3.8216 N   0  0  0  0  0  0  0  0  0  0  0  0
    1.2257    4.3502   -4.0324 C   0  0  0  0  0  0  0  0  0  0  0  0
    0.5131    4.0736   -5.1485 C   0  0  0  0  0  0  0  0  0  0  0  0
   -0.2045    2.8235   -5.2387 C   0  0  0  0  0  0  0  0  0  0  0  0
   -0.1704    1.9521   -4.2275 C   0  0  0  0  0  0  0  0  0  0  0  0
    1.1287   -0.4067   -2.1050 C   0  0  0  0  0  0  0  0  0  0  0  0
    1.8292   -0.6680   -3.2281 C   0  0  0  0  0  0  0  0  0  0  0  0
    2.3329   -2.0337   -3.5430 C   0  0  0  0  0  0  0  0  0  0  0  0
    2.0957   -3.0645   -2.6883 C   0  0  0  0  0  0  0  0  0  0  0  0
    1.3330   -2.7935   -1.4550 C   0  0  0  0  0  0  0  0  0  0  0  0
    0.8853   -1.5587   -1.1880 C   0  0  0  0  0  0  0  0  0  0  0  0
    0.0506    1.4686   -0.2534 C   0  0  0  0  0  0  0  0  0  0  0  0
    0.4173    0.5821    0.9048 C   0  0  0  0  0  0  0  0  0  0  0  0
    0.0273    0.8312    2.1578 C   0  0  0  0  0  0  0  0  0  0  0  0
   -0.7957    2.0050    2.4721 C   0  0  0  0  0  0  0  0  0  0  0  0
   -1.1579    2.8301    1.4679 C   0  0  0  0  0  0  0  0  0  0  0  0
   -0.7241    2.5612    0.0556 C   0  0  0  0  0  0  0  0  0  0  0  0
    2.0939   -5.5287   -2.2206 C   0  0  0  0  0  0  0  0  0  0  0  0
    3.5348   -4.6215   -3.9782 C   0  0  0  0  0  0  0  0  0  0  0  0
   -0.8666    1.3477    4.8707 C   0  0  0  0  0  0  0  0  0  0  0  0
   -1.9412    3.4606    4.1638 C   0  0  0  0  0  0  0  0  0  0  0  0
  1  2  1  0  0  0  0
  1 10  1  0  0  0  0
  1 16  1  0  0  0  0
  2  4  2  0  0  0  0
  2  9  1  0  0  0  0
  4  6  1  0  0  0  0
  6  7  2  0  0  0  0
  7  8  1  0  0  0  0
  8  9  2  0  0  0  0
 10 11  2  0  0  0  0
 10 15  1  0  0  0  0
 11 12  1  0  0  0  0
 12 13  2  0  0  0  0
 13  3  1  0  0  0  0
 13 14  1  0  0  0  0
 14 15  2  0  0  0  0
 16 17  2  0  0  0  0
 16 21  1  0  0  0  0
 17 18  1  0  0  0  0
 18 19  2  0  0  0  0
 19  5  1  0  0  0  0
 19 20  1  0  0  0  0
 20 21  2  0  0  0  0
 22  3  1  0  0  0  0
 23  3  1  0  0  0  0
 24  5  1  0  0  0  0
 25  5  1  0  0  0  0
M  END
>  <CHROM.1>
-121.31027451,14.47594468,-162.70157953,-166.64996239,-3.48058668,0.61860822
0.43317320,-1.14593690,0.12436374,1.19132357,-0.87351915

>  <Name>
1q8n_lig

>  <RI>
0

>  <Rbt.Current_Directory>
/home/itssahil/PROJECTS/Mol_Feturizer/New_Systems/rnas/1q8n

>  <Rbt.Executable>
rbdock ($Id: //depot/dev/client3/rdock/2013.1/src/exe/rbdock.cxx#4 $)

>  <Rbt.Library>
libRbt.so (2013.1, Build901 2013/11/27)

>  <Rbt.Parameter_File>
/export/apps/rDock/src/rDock_2013.1_src/data/scripts/dock_solv.prm

>  <Rbt.Receptor>
prm/pocket_docking_3.prm

>  <SCORE>
-54.2968

>  <SCORE.INTER>
-54.6838

>  <SCORE.INTER.CONST>
1

>  <SCORE.INTER.POLAR>
0

>  <SCORE.INTER.ROT>
5

>  <SCORE.INTER.SOLV>
10.2631

>  <SCORE.INTER.VDW>
-46.8102

>  <SCORE.INTER.norm>
-2.18735

>  <SCORE.INTRA>
0.387016

>  <SCORE.INTRA.DIHEDRAL>
0.728241

>  <SCORE.INTRA.DIHEDRAL.0>
2.1627

>  <SCORE.INTRA.POLAR>
0

>  <SCORE.INTRA.POLAR.0>
0

>  <SCORE.INTRA.REPUL>
0

>  <SCORE.INTRA.REPUL.0>
0

>  <SCORE.INTRA.SOLV>
0.0226853

>  <SCORE.INTRA.SOLV.lig_0>
-5.95779

>  <SCORE.INTRA.VDW>
0.0115529

>  <SCORE.INTRA.VDW.0>
3.81702

>  <SCORE.INTRA.norm>
0.0154806

>  <SCORE.RESTR>
0

>  <SCORE.RESTR.CAVITY>
0

>  <SCORE.RESTR.norm>
0

>  <SCORE.SYSTEM>
0

>  <SCORE.SYSTEM.CONST>
0

>  <SCORE.SYSTEM.DIHEDRAL>
0

>  <SCORE.SYSTEM.SOLV>
0

>  <SCORE.SYSTEM.norm>
0

>  <SCORE.heavy>
25

>  <SCORE.norm>
-2.17187

>  <RMSD>
0.582

$$$$
1q8n_lig
 OpenBabel11021811403D
libRbt.so/2013.1/901 2013/11/27
 25 27  0  0  0  0  0  0  0  0999 V2000
    0.6326    0.9062   -1.7603 C   0  0  0  0  0  0  0  0  0  0  0  0
    0.6127    2.0456   -2.9294 C   0  0  0  0  0  0  0  0  0  0  0  0
   -1.2028    2.4051    3.6992 N   0  0  0  0  0  0  0  0  0  0  0  0
    1.2398    3.2412   -2.8187 C   0  0  0  0  0  0  0  0  0  0  0  0
    2.3873   -4.7575   -2.6305 N   0  0  0  0  0  0  0  0  0  0  0  0
    1.1921    4.2505   -3.9017 C   0  0  0  0  0  0  0  0  0  0  0  0
    0.5087    3.9839   -5.0383 C   0  0  0  0  0  0  0  0  0  0  0  0
   -0.1615    2.7124   -5.1798 C   0  0  0  0  0  0  0  0  0  0  0  0
   -0.1127    1.8114   -4.1955 C   0  0  0  0  0  0  0  0  0  0  0  0
    0.1290    1.3221   -0.2658 C   0  0  0  0  0  0  0  0  0  0  0  0
   -0.4987    2.4949   -0.0404 C   0  0  0  0  0  0  0  0  0  0  0  0
   -0.9652    2.8911    1.3172 C   0  0  0  0  0  0  0  0  0  0  0  0
   -0.7675    2.0627    2.3775 C   0  0  0  0  0  0  0  0  0  0  0  0
   -0.0846    0.7758    2.1461 C   0  0  0  0  0  0  0  0  0  0  0  0
    0.3305    0.4357    0.9179 C   0  0  0  0  0  0  0  0  0  0  0  0
    1.1483   -0.6410   -2.0587 C   0  0  0  0  0  0  0  0  0  0  0  0
    1.0003   -1.6960   -0.9973 C   0  0  0  0  0  0  0  0  0  0  0  0
    1.3862   -2.9621   -1.1773 C   0  0  0  0  0  0  0  0  0  0  0  0
    1.9868   -3.3942   -2.4447 C   0  0  0  0  0  0  0  0  0  0  0  0
    2.1480   -2.4852   -3.4286 C   0  0  0  0  0  0  0  0  0  0  0  0
    1.7165   -1.0595   -3.2383 C   0  0  0  0  0  0  0  0  0  0  0  0
   -0.9217    1.5792    4.8339 C   0  0  0  0  0  0  0  0  0  0  0  0
   -1.9442    3.6074    3.9231 C   0  0  0  0  0  0  0  0  0  0  0  0
    1.8723   -5.7877   -1.7750 C   0  0  0  0  0  0  0  0  0  0  0  0
    3.3086   -5.1325   -3.6793 C   0  0  0  0  0  0  0  0  0  0  0  0
  1  2  1  0  0  0  0
  1 10  1  0  0  0  0
  1 16  1  0  0  0  0
  2  4  2  0  0  0  0
  2  9  1  0  0  0  0
  4  6  1  0  0  0  0
  6  7  2  0  0  0  0
  7  8  1  0  0  0  0
  8  9  2  0  0  0  0
 10 11  2  0  0  0  0
 10 15  1  0  0  0  0
 11 12  1  0  0  0  0
 12 13  2  0  0  0  0
 13  3  1  0  0  0  0
 13 14  1  0  0  0  0
 14 15  2  0  0  0  0
 16 17  2  0  0  0  0
 16 21  1  0  0  0  0
 17 18  1  0  0  0  0
 18 19  2  0  0  0  0
 19  5  1  0  0  0  0
 19 20  1  0  0  0  0
 20 21  2  0  0  0  0
 22  3  1  0  0  0  0
 23  3  1  0  0  0  0
 24  5  1  0  0  0  0
 25  5  1  0  0  0  0
M  END
>  <CHROM.1>
55.21365878,11.10960369,-172.93748186,-175.84060240,18.27846380,0.59677066
0.29290529,-1.07706287,-3.11991622,-1.21328045,2.29311453

>  <Name>
1q8n_lig

>  <RI>
0

>  <Rbt.Current_Directory>
/home/itssahil/PROJECTS/Mol_Feturizer/New_Systems/rnas/1q8n

>  <Rbt.Executable>
rbdock ($Id: //depot/dev/client3/rdock/2013.1/src/exe/rbdock.cxx#4 $)

>  <Rbt.Library>
libRbt.so (2013.1, Build901 2013/11/27)

>  <Rbt.Parameter_File>
/export/apps/rDock/src/rDock_2013.1_src/data/scripts/dock_solv.prm

>  <Rbt.Receptor>
prm/pocket_docking_3.prm

>  <SCORE>
-53.0717

>  <SCORE.INTER>
-53.8087

>  <SCORE.INTER.CONST>
1

>  <SCORE.INTER.POLAR>
0

>  <SCORE.INTER.ROT>
5

>  <SCORE.INTER.SOLV>
10.3989

>  <SCORE.INTER.VDW>
-46.2721

>  <SCORE.INTER.norm>
-2.15235

>  <SCORE.INTRA>
0.737033

>  <SCORE.INTRA.DIHEDRAL>
1.32281

>  <SCORE.INTRA.DIHEDRAL.0>
2.1627

>  <SCORE.INTRA.POLAR>
0

>  <SCORE.INTRA.POLAR.0>
0

>  <SCORE.INTRA.REPUL>
0

>  <SCORE.INTRA.REPUL.0>
0

>  <SCORE.INTRA.SOLV>
0.0320489

>  <SCORE.INTRA.SOLV.lig_0>
-5.95779

>  <SCORE.INTRA.VDW>
0.0596054

>  <SCORE.INTRA.VDW.0>
3.81702

>  <SCORE.INTRA.norm>
0.0294813

>  <SCORE.RESTR>
0

>  <SCORE.RESTR.CAVITY>
0

>  <SCORE.RESTR.norm>
0

>  <SCORE.SYSTEM>
0

>  <SCORE.SYSTEM.CONST>
0

>  <SCORE.SYSTEM.DIHEDRAL>
0

>  <SCORE.SYSTEM.SOLV>
0

>  <SCORE.SYSTEM.norm>
0

>  <SCORE.heavy>
25

>  <SCORE.norm>
-2.12287

>  <RMSD>
0.586

$$$$
1q8n_lig
 OpenBabel11021811403D
libRbt.so/2013.1/901 2013/11/27
 25 27  0  0  0  0  0  0  0  0999 V2000
    0.6284    1.1400   -1.9779 C   0  0  0  0  0  0  0  0  0  0  0  0
    0.5553    2.2093   -3.2094 C   0  0  0  0  0  0  0  0  0  0  0  0
    2.8180   -4.2809   -3.0919 N   0  0  0  0  0  0  0  0  0  0  0  0
   -0.1697    2.0045   -4.3352 C   0  0  0  0  0  0  0  0  0  0  0  0
   -1.1352    2.3431    3.6217 N   0  0  0  0  0  0  0  0  0  0  0  0
   -0.2044    2.9986   -5.4326 C   0  0  0  0  0  0  0  0  0  0  0  0
    0.5011    4.1474   -5.3204 C   0  0  0  0  0  0  0  0  0  0  0  0
    1.2756    4.3888   -4.1255 C   0  0  0  0  0  0  0  0  0  0  0  0
    1.3003    3.4839   -3.1438 C   0  0  0  0  0  0  0  0  0  0  0  0
    1.2255   -0.3476   -2.2791 C   0  0  0  0  0  0  0  0  0  0  0  0
    0.6561   -1.4502   -1.7495 C   0  0  0  0  0  0  0  0  0  0  0  0
    1.1877   -2.8160   -2.0137 C   0  0  0  0  0  0  0  0  0  0  0  0
    2.2764   -2.9842   -2.8110 C   0  0  0  0  0  0  0  0  0  0  0  0
    2.9085   -1.7880   -3.3989 C   0  0  0  0  0  0  0  0  0  0  0  0
    2.4181   -0.5658   -3.1493 C   0  0  0  0  0  0  0  0  0  0  0  0
    0.1138    1.5313   -0.4512 C   0  0  0  0  0  0  0  0  0  0  0  0
    0.1894    0.5079    0.6482 C   0  0  0  0  0  0  0  0  0  0  0  0
   -0.1994    0.7620    1.9007 C   0  0  0  0  0  0  0  0  0  0  0  0
   -0.7312    2.0783    2.2726 C   0  0  0  0  0  0  0  0  0  0  0  0
   -0.8260    3.0311    1.3220 C   0  0  0  0  0  0  0  0  0  0  0  0
   -0.3906    2.7575   -0.0888 C   0  0  0  0  0  0  0  0  0  0  0  0
    2.2927   -5.4729   -2.4988 C   0  0  0  0  0  0  0  0  0  0  0  0
    3.9202   -4.4200   -3.9924 C   0  0  0  0  0  0  0  0  0  0  0  0
   -0.8097    1.4200    4.6707 C   0  0  0  0  0  0  0  0  0  0  0  0
   -1.8705    3.5397    3.9636 C   0  0  0  0  0  0  0  0  0  0  0  0
  1  2  1  0  0  0  0
  1 10  1  0  0  0  0
  1 16  1  0  0  0  0
  2  4  2  0  0  0  0
  2  9  1  0  0  0  0
  4  6  1  0  0  0  0
  6  7  2  0  0  0  0
  7  8  1  0  0  0  0
  8  9  2  0  0  0  0
 10 11  2  0  0  0  0
 10 15  1  0  0  0  0
 11 12  1  0  0  0  0
 12 13  2  0  0  0  0
 13  3  1  0  0  0  0
 13 14  1  0  0  0  0
 14 15  2  0  0  0  0
 16 17  2  0  0  0  0
 16 21  1  0  0  0  0
 17 18  1  0  0  0  0
 18 19  2  0  0  0  0
 19  5  1  0  0  0  0
 19 20  1  0  0  0  0
 20 21  2  0  0  0  0
 22  3  1  0  0  0  0
 23  3  1  0  0  0  0
 24  5  1  0  0  0  0
 25  5  1  0  0  0  0
M  END
>  <CHROM.1>
60.88206235,-138.80733945,179.43934914,-3.29511047,11.11131030,0.72246188
0.51663791,-1.33139346,3.02887438,-1.16977211,2.25975730

>  <Name>
1q8n_lig

>  <RI>
0

>  <Rbt.Current_Directory>
/home/itssahil/PROJECTS/Mol_Feturizer/New_Systems/rnas/1q8n

>  <Rbt.Executable>
rbdock ($Id: //depot/dev/client3/rdock/2013.1/src/exe/rbdock.cxx#4 $)

>  <Rbt.Library>
libRbt.so (2013.1, Build901 2013/11/27)

>  <Rbt.Parameter_File>
/export/apps/rDock/src/rDock_2013.1_src/data/scripts/dock_solv.prm

>  <Rbt.Receptor>
prm/pocket_docking_3.prm

>  <SCORE>
-50.3009

>  <SCORE.INTER>
-50.4015

>  <SCORE.INTER.CONST>
1

>  <SCORE.INTER.POLAR>
0

>  <SCORE.INTER.ROT>
5

>  <SCORE.INTER.SOLV>
10.5216

>  <SCORE.INTER.VDW>
-44.0415

>  <SCORE.INTER.norm>
-2.01606

>  <SCORE.INTRA>
0.100669

>  <SCORE.INTRA.DIHEDRAL>
0.514989

>  <SCORE.INTRA.DIHEDRAL.0>
2.1627

>  <SCORE.INTRA.POLAR>
0

>  <SCORE.INTRA.POLAR.0>
0

>  <SCORE.INTRA.REPUL>
0

>  <SCORE.INTRA.REPUL.0>
0

>  <SCORE.INTRA.SOLV>
0.00857566

>  <SCORE.INTRA.SOLV.lig_0>
-5.95779

>  <SCORE.INTRA.VDW>
-0.161113

>  <SCORE.INTRA.VDW.0>
3.81702

>  <SCORE.INTRA.norm>
0.00402676

>  <SCORE.RESTR>
0

>  <SCORE.RESTR.CAVITY>
0

>  <SCORE.RESTR.norm>
0

>  <SCORE.SYSTEM>
0

>  <SCORE.SYSTEM.CONST>
0

>  <SCORE.SYSTEM.DIHEDRAL>
0

>  <SCORE.SYSTEM.SOLV>
0

>  <SCORE.SYSTEM.norm>
0

>  <SCORE.heavy>
25

>  <SCORE.norm>
-2.01203

>  <RMSD>
0.588

$$$$
1q8n_lig
 OpenBabel11021811403D
libRbt.so/2013.1/901 2013/11/27
 25 27  0  0  0  0  0  0  0  0999 V2000
    0.6302    0.9041   -1.7238 C   0  0  0  0  0  0  0  0  0  0  0  0
    0.6150    2.0489   -2.8878 C   0  0  0  0  0  0  0  0  0  0  0  0
   -1.2116    2.4210    3.7285 N   0  0  0  0  0  0  0  0  0  0  0  0
    1.2295    3.2497   -2.7632 C   0  0  0  0  0  0  0  0  0  0  0  0
    2.3788   -4.7586   -2.6124 N   0  0  0  0  0  0  0  0  0  0  0  0
    1.1866    4.2637   -3.8420 C   0  0  0  0  0  0  0  0  0  0  0  0
    0.5206    3.9963   -4.9888 C   0  0  0  0  0  0  0  0  0  0  0  0
   -0.1358    2.7194   -5.1450 C   0  0  0  0  0  0  0  0  0  0  0  0
   -0.0915    1.8141   -4.1643 C   0  0  0  0  0  0  0  0  0  0  0  0
    0.1262    1.3147   -0.2280 C   0  0  0  0  0  0  0  0  0  0  0  0
    0.3296    0.4987    0.8271 C   0  0  0  0  0  0  0  0  0  0  0  0
   -0.1237    0.8573    2.1996 C   0  0  0  0  0  0  0  0  0  0  0  0
   -0.7614    2.0374    2.4232 C   0  0  0  0  0  0  0  0  0  0  0  0
   -0.9890    2.9409    1.2796 C   0  0  0  0  0  0  0  0  0  0  0  0
   -0.5761    2.6018    0.0504 C   0  0  0  0  0  0  0  0  0  0  0  0
    1.1417   -0.6432   -2.0287 C   0  0  0  0  0  0  0  0  0  0  0  0
    1.0434   -1.6887   -0.9522 C   0  0  0  0  0  0  0  0  0  0  0  0
    1.4286   -2.9544   -1.1360 C   0  0  0  0  0  0  0  0  0  0  0  0
    1.9788   -3.3957   -2.4230 C   0  0  0  0  0  0  0  0  0  0  0  0
    2.0943   -2.4953   -3.4213 C   0  0  0  0  0  0  0  0  0  0  0  0
    1.6632   -1.0701   -3.2267 C   0  0  0  0  0  0  0  0  0  0  0  0
   -0.9341    1.6368    4.8933 C   0  0  0  0  0  0  0  0  0  0  0  0
   -1.9650    3.6237    3.9045 C   0  0  0  0  0  0  0  0  0  0  0  0
    3.3249   -5.1013   -3.6350 C   0  0  0  0  0  0  0  0  0  0  0  0
    1.8505   -5.8177   -1.7826 C   0  0  0  0  0  0  0  0  0  0  0  0
  1  2  1  0  0  0  0
  1 10  1  0  0  0  0
  1 16  1  0  0  0  0
  2  4  2  0  0  0  0
  2  9  1  0  0  0  0
  4  6  1  0  0  0  0
  6  7  2  0  0  0  0
  7  8  1  0  0  0  0
  8  9  2  0  0  0  0
 10 11  2  0  0  0  0
 10 15  1  0  0  0  0
 11 12  1  0  0  0  0
 12 13  2  0  0  0  0
 13  3  1  0  0  0  0
 13 14  1  0  0  0  0
 14 15  2  0  0  0  0
 16 17  2  0  0  0  0
 16 21  1  0  0  0  0
 17 18  1  0  0  0  0
 18 19  2  0  0  0  0
 19  5  1  0  0  0  0
 19 20  1  0  0  0  0
 20 21  2  0  0  0  0
 22  3  1  0  0  0  0
 23  3  1  0  0  0  0
 24  5  1  0  0  0  0
 25  5  1  0  0  0  0
M  END
>  <CHROM.1>
54.23498945,-168.25268929,-175.54075554,4.69309262,-157.65306763,0.58914373
0.30902303,-1.04980078,-3.10922709,-1.21339774,2.29811355

>  <Name>
1q8n_lig

>  <RI>
0

>  <Rbt.Current_Directory>
/home/itssahil/PROJECTS/Mol_Feturizer/New_Systems/rnas/1q8n

>  <Rbt.Executable>
rbdock ($Id: //depot/dev/client3/rdock/2013.1/src/exe/rbdock.cxx#4 $)

>  <Rbt.Library>
libRbt.so (2013.1, Build901 2013/11/27)

>  <Rbt.Parameter_File>
/export/apps/rDock/src/rDock_2013.1_src/data/scripts/dock_solv.prm

>  <Rbt.Receptor>
prm/pocket_docking_4.prm

>  <SCORE>
-52.6449

>  <SCORE.INTER>
-53.6481

>  <SCORE.INTER.CONST>
1

>  <SCORE.INTER.POLAR>
0

>  <SCORE.INTER.ROT>
5

>  <SCORE.INTER.SOLV>
10.4385

>  <SCORE.INTER.VDW>
-46.1782

>  <SCORE.INTER.norm>
-2.14592

>  <SCORE.INTRA>
1.00316

>  <SCORE.INTRA.DIHEDRAL>
1.9331

>  <SCORE.INTRA.DIHEDRAL.0>
2.1627

>  <SCORE.INTRA.POLAR>
0

>  <SCORE.INTRA.POLAR.0>
0

>  <SCORE.INTRA.REPUL>
0

>  <SCORE.INTRA.REPUL.0>
0

>  <SCORE.INTRA.SOLV>
0.0326653

>  <SCORE.INTRA.SOLV.lig_0>
-5.95779

>  <SCORE.INTRA.VDW>
0.0202727

>  <SCORE.INTRA.VDW.0>
3.81702

>  <SCORE.INTRA.norm>
0.0401262

>  <SCORE.RESTR>
0

>  <SCORE.RESTR.CAVITY>
0

>  <SCORE.RESTR.norm>
0

>  <SCORE.SYSTEM>
0

>  <SCORE.SYSTEM.CONST>
0

>  <SCORE.SYSTEM.DIHEDRAL>
0

>  <SCORE.SYSTEM.SOLV>
0

>  <SCORE.SYSTEM.norm>
0

>  <SCORE.heavy>
25

>  <SCORE.norm>
-2.1058

>  <RMSD>
0.588

$$$$
1q8n_lig
 OpenBabel11021811403D
libRbt.so/2013.1/901 2013/11/27
 25 27  0  0  0  0  0  0  0  0999 V2000
    0.5732    0.8720   -1.7860 C   0  0  0  0  0  0  0  0  0  0  0  0
    0.5270    2.0035   -2.9620 C   0  0  0  0  0  0  0  0  0  0  0  0
   -1.2211    2.4225    3.6728 N   0  0  0  0  0  0  0  0  0  0  0  0
   -0.1219    1.8326   -4.1387 C   0  0  0  0  0  0  0  0  0  0  0  0
    2.3885   -4.7754   -2.6372 N   0  0  0  0  0  0  0  0  0  0  0  0
   -0.1345    2.8833   -5.1826 C   0  0  0  0  0  0  0  0  0  0  0  0
    0.5142    4.0508   -4.9679 C   0  0  0  0  0  0  0  0  0  0  0  0
    1.2069    4.2564   -3.7174 C   0  0  0  0  0  0  0  0  0  0  0  0
    1.2125    3.3007   -2.7848 C   0  0  0  0  0  0  0  0  0  0  0  0
    0.0815    1.2917   -0.2886 C   0  0  0  0  0  0  0  0  0  0  0  0
    0.1736    0.4294    0.7451 C   0  0  0  0  0  0  0  0  0  0  0  0
   -0.2703    0.7955    2.1187 C   0  0  0  0  0  0  0  0  0  0  0  0
   -0.7845    2.0300    2.3655 C   0  0  0  0  0  0  0  0  0  0  0  0
   -0.8893    2.9843    1.2456 C   0  0  0  0  0  0  0  0  0  0  0  0
   -0.4868    2.6378    0.0149 C   0  0  0  0  0  0  0  0  0  0  0  0
    1.1034   -0.6710   -2.0804 C   0  0  0  0  0  0  0  0  0  0  0  0
    1.0072   -1.7132   -1.0005 C   0  0  0  0  0  0  0  0  0  0  0  0
    1.4072   -2.9756   -1.1760 C   0  0  0  0  0  0  0  0  0  0  0  0
    1.9726   -3.4161   -2.4567 C   0  0  0  0  0  0  0  0  0  0  0  0
    2.0869   -2.5185   -3.4576 C   0  0  0  0  0  0  0  0  0  0  0  0
    1.6392   -1.0972   -3.2723 C   0  0  0  0  0  0  0  0  0  0  0  0
   -1.9730    3.6190    3.8997 C   0  0  0  0  0  0  0  0  0  0  0  0
   -0.9108    1.6104    4.8083 C   0  0  0  0  0  0  0  0  0  0  0  0
    3.3412   -5.1132   -3.6554 C   0  0  0  0  0  0  0  0  0  0  0  0
    1.8699   -5.8358   -1.8028 C   0  0  0  0  0  0  0  0  0  0  0  0
  1  2  1  0  0  0  0
  1 10  1  0  0  0  0
  1 16  1  0  0  0  0
  2  4  2  0  0  0  0
  2  9  1  0  0  0  0
  4  6  1  0  0  0  0
  6  7  2  0  0  0  0
  7  8  1  0  0  0  0
  8  9  2  0  0  0  0
 10 11  2  0  0  0  0
 10 15  1  0  0  0  0
 11 12  1  0  0  0  0
 12 13  2  0  0  0  0
 13  3  1  0  0  0  0
 13 14  1  0  0  0  0
 14 15  2  0  0  0  0
 16 17  2  0  0  0  0
 16 21  1  0  0  0  0
 17 18  1  0  0  0  0
 18 19  2  0  0  0  0
 19  5  1  0  0  0  0
 19 20  1  0  0  0  0
 20 21  2  0  0  0  0
 22  3  1  0  0  0  0
 23  3  1  0  0  0  0
 24  5  1  0  0  0  0
 25  5  1  0  0  0  0
M  END
>  <CHROM.1>
-125.25892860,-175.79711392,-174.27607809,-168.80242176,-157.98683122,0.57268280
0.30506696,-1.08314248,-3.07787347,-1.21268603,2.31169273

>  <Name>
1q8n_lig

>  <RI>
0

>  <Rbt.Current_Directory>
/home/itssahil/PROJECTS/Mol_Feturizer/New_Systems/rnas/1q8n

>  <Rbt.Executable>
rbdock ($Id: //depot/dev/client3/rdock/2013.1/src/exe/rbdock.cxx#4 $)

>  <Rbt.Library>
libRbt.so (2013.1, Build901 2013/11/27)

>  <Rbt.Parameter_File>
/export/apps/rDock/src/rDock_2013.1_src/data/scripts/dock_solv.prm

>  <Rbt.Receptor>
prm/pocket_docking_4.prm

>  <SCORE>
-52.0136

>  <SCORE.INTER>
-53.1816

>  <SCORE.INTER.CONST>
1

>  <SCORE.INTER.POLAR>
0

>  <SCORE.INTER.ROT>
5

>  <SCORE.INTER.SOLV>
10.5344

>  <SCORE.INTER.VDW>
-45.8992

>  <SCORE.INTER.norm>
-2.12726

>  <SCORE.INTRA>
1.16801

>  <SCORE.INTRA.DIHEDRAL>
2.27799

>  <SCORE.INTRA.DIHEDRAL.0>
2.1627

>  <SCORE.INTRA.POLAR>
0

>  <SCORE.INTRA.POLAR.0>
0

>  <SCORE.INTRA.REPUL>
0

>  <SCORE.INTRA.REPUL.0>
0

>  <SCORE.INTRA.SOLV>
0.0355714

>  <SCORE.INTRA.SOLV.lig_0>
-5.95779

>  <SCORE.INTRA.VDW>
0.0112237

>  <SCORE.INTRA.VDW.0>
3.81702

>  <SCORE.INTRA.norm>
0.0467202

>  <SCORE.RESTR>
0

>  <SCORE.RESTR.CAVITY>
0

>  <SCORE.RESTR.norm>
0

>  <SCORE.SYSTEM>
0

>  <SCORE.SYSTEM.CONST>
0

>  <SCORE.SYSTEM.DIHEDRAL>
0

>  <SCORE.SYSTEM.SOLV>
0

>  <SCORE.SYSTEM.norm>
0

>  <SCORE.heavy>
25

>  <SCORE.norm>
-2.08054

>  <RMSD>
0.588

$$$$
1q8n_lig
 OpenBabel11021811413D
libRbt.so/2013.1/901 2013/11/27
 25 27  0  0  0  0  0  0  0  0999 V2000
    0.5384    1.0158   -1.8038 C   0  0  0  0  0  0  0  0  0  0  0  0
    0.4971    2.0927   -3.0302 C   0  0  0  0  0  0  0  0  0  0  0  0
    2.5838   -4.4642   -2.9025 N   0  0  0  0  0  0  0  0  0  0  0  0
   -0.1981    1.8946   -4.1758 C   0  0  0  0  0  0  0  0  0  0  0  0
   -1.1826    2.2563    3.8009 N   0  0  0  0  0  0  0  0  0  0  0  0
   -0.2045    2.8955   -5.2675 C   0  0  0  0  0  0  0  0  0  0  0  0
    0.4973    4.0438   -5.1298 C   0  0  0  0  0  0  0  0  0  0  0  0
    1.2400    4.2781   -3.9136 C   0  0  0  0  0  0  0  0  0  0  0  0
    1.2395    3.3672   -2.9372 C   0  0  0  0  0  0  0  0  0  0  0  0
    1.0997   -0.4846   -2.1101 C   0  0  0  0  0  0  0  0  0  0  0  0
    1.7740   -0.7608   -3.2456 C   0  0  0  0  0  0  0  0  0  0  0  0
    2.2936   -2.1247   -3.5418 C   0  0  0  0  0  0  0  0  0  0  0  0
    2.0984   -3.1384   -2.6567 C   0  0  0  0  0  0  0  0  0  0  0  0
    1.3647   -2.8511   -1.4096 C   0  0  0  0  0  0  0  0  0  0  0  0
    0.9022   -1.6182   -1.1596 C   0  0  0  0  0  0  0  0  0  0  0  0
    0.0272    1.4122   -0.2772 C   0  0  0  0  0  0  0  0  0  0  0  0
    0.2769    0.4651    0.8640 C   0  0  0  0  0  0  0  0  0  0  0  0
   -0.1004    0.7285    2.1181 C   0  0  0  0  0  0  0  0  0  0  0  0
   -0.7920    1.9795    2.4503 C   0  0  0  0  0  0  0  0  0  0  0  0
   -1.0462    2.8617    1.4616 C   0  0  0  0  0  0  0  0  0  0  0  0
   -0.6255    2.5772    0.0485 C   0  0  0  0  0  0  0  0  0  0  0  0
    3.5717   -4.7432   -3.8998 C   0  0  0  0  0  0  0  0  0  0  0  0
    2.0833   -5.5659   -2.1403 C   0  0  0  0  0  0  0  0  0  0  0  0
   -0.8478    1.3418    4.8545 C   0  0  0  0  0  0  0  0  0  0  0  0
   -1.9132    3.4567    4.1396 C   0  0  0  0  0  0  0  0  0  0  0  0
  1  2  1  0  0  0  0
  1 10  1  0  0  0  0
  1 16  1  0  0  0  0
  2  4  2  0  0  0  0
  2  9  1  0  0  0  0
  4  6  1  0  0  0  0
  6  7  2  0  0  0  0
  7  8  1  0  0  0  0
  8  9  2  0  0  0  0
 10 11  2  0  0  0  0
 10 15  1  0  0  0  0
 11 12  1  0  0  0  0
 12 13  2  0  0  0  0
 13  3  1  0  0  0  0
 13 14  1  0  0  0  0
 14 15  2  0  0  0  0
 16 17  2  0  0  0  0
 16 21  1  0  0  0  0
 17 18  1  0  0  0  0
 18 19  2  0  0  0  0
 19  5  1  0  0  0  0
 19 20  1  0  0  0  0
 20 21  2  0  0  0  0
 22  3  1  0  0  0  0
 23  3  1  0  0  0  0
 24  5  1  0  0  0  0
 25  5  1  0  0  0  0
M  END
>  <CHROM.1>
58.96168200,13.98769032,-170.65115412,15.95824428,2.86715544,0.61081765,0.38413442
-1.13860975,0.10472468,1.19249664,-0.87871745

>  <Name>
1q8n_lig

>  <RI>
0

>  <Rbt.Current_Directory>
/home/itssahil/PROJECTS/Mol_Feturizer/New_Systems/rnas/1q8n

>  <Rbt.Executable>
rbdock ($Id: //depot/dev/client3/rdock/2013.1/src/exe/rbdock.cxx#4 $)

>  <Rbt.Library>
libRbt.so (2013.1, Build901 2013/11/27)

>  <Rbt.Parameter_File>
/export/apps/rDock/src/rDock_2013.1_src/data/scripts/dock_solv.prm

>  <Rbt.Receptor>
prm/pocket_docking_7.prm

>  <SCORE>
-53.6954

>  <SCORE.INTER>
-54.277

>  <SCORE.INTER.CONST>
1

>  <SCORE.INTER.POLAR>
0

>  <SCORE.INTER.ROT>
5

>  <SCORE.INTER.SOLV>
10.2533

>  <SCORE.INTER.VDW>
-46.5357

>  <SCORE.INTER.norm>
-2.17108

>  <SCORE.INTRA>
0.581565

>  <SCORE.INTRA.DIHEDRAL>
0.997376

>  <SCORE.INTRA.DIHEDRAL.0>
2.1627

>  <SCORE.INTRA.POLAR>
0

>  <SCORE.INTRA.POLAR.0>
0

>  <SCORE.INTRA.REPUL>
0

>  <SCORE.INTRA.REPUL.0>
0

>  <SCORE.INTRA.SOLV>
0.0258365

>  <SCORE.INTRA.SOLV.lig_0>
-5.95779

>  <SCORE.INTRA.VDW>
0.0699585

>  <SCORE.INTRA.VDW.0>
3.81702

>  <SCORE.INTRA.norm>
0.0232626

>  <SCORE.RESTR>
0

>  <SCORE.RESTR.CAVITY>
0

>  <SCORE.RESTR.norm>
0

>  <SCORE.SYSTEM>
0

>  <SCORE.SYSTEM.CONST>
0

>  <SCORE.SYSTEM.DIHEDRAL>
0

>  <SCORE.SYSTEM.SOLV>
0

>  <SCORE.SYSTEM.norm>
0

>  <SCORE.heavy>
25

>  <SCORE.norm>
-2.14782

>  <RMSD>
0.592

$$$$
1q8n_lig
 OpenBabel11021811403D
libRbt.so/2013.1/901 2013/11/27
 25 27  0  0  0  0  0  0  0  0999 V2000
    0.6315    0.8485   -1.7686 C   0  0  0  0  0  0  0  0  0  0  0  0
    0.6069    1.9945   -2.9311 C   0  0  0  0  0  0  0  0  0  0  0  0
   -1.2006    2.3497    3.6914 N   0  0  0  0  0  0  0  0  0  0  0  0
    1.2389    3.1873   -2.8183 C   0  0  0  0  0  0  0  0  0  0  0  0
    2.3953   -4.8067   -2.6743 N   0  0  0  0  0  0  0  0  0  0  0  0
    1.1868    4.2029   -3.8952 C   0  0  0  0  0  0  0  0  0  0  0  0
    0.4941    3.9451   -5.0282 C   0  0  0  0  0  0  0  0  0  0  0  0
   -0.1815    2.6767   -5.1719 C   0  0  0  0  0  0  0  0  0  0  0  0
   -0.1286    1.7700   -4.1931 C   0  0  0  0  0  0  0  0  0  0  0  0
    0.1308    1.2550   -0.2705 C   0  0  0  0  0  0  0  0  0  0  0  0
    0.4727    0.5164    0.8056 C   0  0  0  0  0  0  0  0  0  0  0  0
    0.0247    0.8725    2.1805 C   0  0  0  0  0  0  0  0  0  0  0  0
   -0.7502    1.9712    2.3847 C   0  0  0  0  0  0  0  0  0  0  0  0
   -1.1303    2.7898    1.2178 C   0  0  0  0  0  0  0  0  0  0  0  0
   -0.7199    2.4539   -0.0131 C   0  0  0  0  0  0  0  0  0  0  0  0
    1.1491   -0.6961   -2.0771 C   0  0  0  0  0  0  0  0  0  0  0  0
    1.0157   -1.7547   -1.0173 C   0  0  0  0  0  0  0  0  0  0  0  0
    1.4039   -3.0190   -1.2051 C   0  0  0  0  0  0  0  0  0  0  0  0
    1.9924   -3.4454   -2.4801 C   0  0  0  0  0  0  0  0  0  0  0  0
    2.1402   -2.5329   -3.4630 C   0  0  0  0  0  0  0  0  0  0  0  0
    1.7061   -1.1092   -3.2638 C   0  0  0  0  0  0  0  0  0  0  0  0
   -1.9435    3.5506    3.9252 C   0  0  0  0  0  0  0  0  0  0  0  0
   -0.9140    1.5186    4.8194 C   0  0  0  0  0  0  0  0  0  0  0  0
    3.3510   -5.1423   -3.6904 C   0  0  0  0  0  0  0  0  0  0  0  0
    1.8605   -5.8715   -1.8558 C   0  0  0  0  0  0  0  0  0  0  0  0
  1  2  1  0  0  0  0
  1 10  1  0  0  0  0
  1 16  1  0  0  0  0
  2  4  2  0  0  0  0
  2  9  1  0  0  0  0
  4  6  1  0  0  0  0
  6  7  2  0  0  0  0
  7  8  1  0  0  0  0
  8  9  2  0  0  0  0
 10 11  2  0  0  0  0
 10 15  1  0  0  0  0
 11 12  1  0  0  0  0
 12 13  2  0  0  0  0
 13  3  1  0  0  0  0
 13 14  1  0  0  0  0
 14 15  2  0  0  0  0
 16 17  2  0  0  0  0
 16 21  1  0  0  0  0
 17 18  1  0  0  0  0
 18 19  2  0  0  0  0
 19  5  1  0  0  0  0
 19 20  1  0  0  0  0
 20 21  2  0  0  0  0
 22  3  1  0  0  0  0
 23  3  1  0  0  0  0
 24  5  1  0  0  0  0
 25  5  1  0  0  0  0
M  END
>  <CHROM.1>
55.62314488,-160.60048149,-173.44259740,175.88416486,-158.95335537,0.59269795
0.24954150,-1.09531741,-3.13084413,-1.21115493,2.28041219

>  <Name>
1q8n_lig

>  <RI>
0

>  <Rbt.Current_Directory>
/home/itssahil/PROJECTS/Mol_Feturizer/New_Systems/rnas/1q8n

>  <Rbt.Executable>
rbdock ($Id: //depot/dev/client3/rdock/2013.1/src/exe/rbdock.cxx#4 $)

>  <Rbt.Library>
libRbt.so (2013.1, Build901 2013/11/27)

>  <Rbt.Parameter_File>
/export/apps/rDock/src/rDock_2013.1_src/data/scripts/dock_solv.prm

>  <Rbt.Receptor>
prm/pocket_docking_3.prm

>  <SCORE>
-52.8143

>  <SCORE.INTER>
-53.5481

>  <SCORE.INTER.CONST>
1

>  <SCORE.INTER.POLAR>
0

>  <SCORE.INTER.ROT>
5

>  <SCORE.INTER.SOLV>
10.3827

>  <SCORE.INTER.VDW>
-46.093

>  <SCORE.INTER.norm>
-2.14193

>  <SCORE.INTRA>
0.733869

>  <SCORE.INTRA.DIHEDRAL>
1.71402

>  <SCORE.INTRA.DIHEDRAL.0>
2.1627

>  <SCORE.INTRA.POLAR>
0

>  <SCORE.INTRA.POLAR.0>
0

>  <SCORE.INTRA.REPUL>
0

>  <SCORE.INTRA.REPUL.0>
0

>  <SCORE.INTRA.SOLV>
0.0255509

>  <SCORE.INTRA.SOLV.lig_0>
-5.95779

>  <SCORE.INTRA.VDW>
-0.135915

>  <SCORE.INTRA.VDW.0>
3.81702

>  <SCORE.INTRA.norm>
0.0293548

>  <SCORE.RESTR>
0

>  <SCORE.RESTR.CAVITY>
0

>  <SCORE.RESTR.norm>
0

>  <SCORE.SYSTEM>
0

>  <SCORE.SYSTEM.CONST>
0

>  <SCORE.SYSTEM.DIHEDRAL>
0

>  <SCORE.SYSTEM.SOLV>
0

>  <SCORE.SYSTEM.norm>
0

>  <SCORE.heavy>
25

>  <SCORE.norm>
-2.11257

>  <RMSD>
0.594

$$$$
1q8n_lig
 OpenBabel11021811403D
libRbt.so/2013.1/901 2013/11/27
 25 27  0  0  0  0  0  0  0  0999 V2000
    0.5976    1.1169   -1.7067 C   0  0  0  0  0  0  0  0  0  0  0  0
    0.5910    2.2064   -2.9226 C   0  0  0  0  0  0  0  0  0  0  0  0
    2.5721   -4.3756   -2.8712 N   0  0  0  0  0  0  0  0  0  0  0  0
    1.2555    3.3858   -2.8730 C   0  0  0  0  0  0  0  0  0  0  0  0
   -1.1744    2.3324    3.8875 N   0  0  0  0  0  0  0  0  0  0  0  0
    1.2188    4.3499   -3.9968 C   0  0  0  0  0  0  0  0  0  0  0  0
    0.5075    4.0571   -5.1097 C   0  0  0  0  0  0  0  0  0  0  0  0
   -0.2030    2.8020   -5.1860 C   0  0  0  0  0  0  0  0  0  0  0  0
   -0.1636    1.9419   -4.1654 C   0  0  0  0  0  0  0  0  0  0  0  0
    1.1372   -0.3899   -2.0209 C   0  0  0  0  0  0  0  0  0  0  0  0
    0.7988   -1.4322   -1.2339 C   0  0  0  0  0  0  0  0  0  0  0  0
    1.2821   -2.8144   -1.5055 C   0  0  0  0  0  0  0  0  0  0  0  0
    2.0871   -3.0603   -2.5736 C   0  0  0  0  0  0  0  0  0  0  0  0
    2.4639   -1.9309   -3.4444 C   0  0  0  0  0  0  0  0  0  0  0  0
    2.0214   -0.6927   -3.1844 C   0  0  0  0  0  0  0  0  0  0  0  0
    0.0729    1.5067   -0.1831 C   0  0  0  0  0  0  0  0  0  0  0  0
    0.3033    0.5502    0.9543 C   0  0  0  0  0  0  0  0  0  0  0  0
   -0.0855    0.8079    2.2060 C   0  0  0  0  0  0  0  0  0  0  0  0
   -0.7714    2.0618    2.5393 C   0  0  0  0  0  0  0  0  0  0  0  0
   -1.0084    2.9525    1.5540 C   0  0  0  0  0  0  0  0  0  0  0  0
   -0.5746    2.6744    0.1435 C   0  0  0  0  0  0  0  0  0  0  0  0
    2.0952   -5.5386   -2.1867 C   0  0  0  0  0  0  0  0  0  0  0  0
    3.5657   -4.5637   -3.8824 C   0  0  0  0  0  0  0  0  0  0  0  0
   -1.9230    3.5166    4.1968 C   0  0  0  0  0  0  0  0  0  0  0  0
   -0.8470    1.4258    4.9648 C   0  0  0  0  0  0  0  0  0  0  0  0
  1  2  1  0  0  0  0
  1 10  1  0  0  0  0
  1 16  1  0  0  0  0
  2  4  2  0  0  0  0
  2  9  1  0  0  0  0
  4  6  1  0  0  0  0
  6  7  2  0  0  0  0
  7  8  1  0  0  0  0
  8  9  2  0  0  0  0
 10 11  2  0  0  0  0
 10 15  1  0  0  0  0
 11 12  1  0  0  0  0
 12 13  2  0  0  0  0
 13  3  1  0  0  0  0
 13 14  1  0  0  0  0
 14 15  2  0  0  0  0
 16 17  2  0  0  0  0
 16 21  1  0  0  0  0
 17 18  1  0  0  0  0
 18 19  2  0  0  0  0
 19  5  1  0  0  0  0
 19 20  1  0  0  0  0
 20 21  2  0  0  0  0
 22  3  1  0  0  0  0
 23  3  1  0  0  0  0
 24  5  1  0  0  0  0
 25  5  1  0  0  0  0
M  END
>  <CHROM.1>
-121.83271116,-159.05058162,-170.04753808,9.07411149,-175.83329643,0.63549863
0.46312160,-1.08904865,3.02019745,-1.19299510,2.27050395

>  <Name>
1q8n_lig

>  <RI>
0

>  <Rbt.Current_Directory>
/home/itssahil/PROJECTS/Mol_Feturizer/New_Systems/rnas/1q8n

>  <Rbt.Executable>
rbdock ($Id: //depot/dev/client3/rdock/2013.1/src/exe/rbdock.cxx#4 $)

>  <Rbt.Library>
libRbt.so (2013.1, Build901 2013/11/27)

>  <Rbt.Parameter_File>
/export/apps/rDock/src/rDock_2013.1_src/data/scripts/dock_solv.prm

>  <Rbt.Receptor>
prm/pocket_docking_4.prm

>  <SCORE>
-53.9658

>  <SCORE.INTER>
-54.417

>  <SCORE.INTER.CONST>
1

>  <SCORE.INTER.POLAR>
0

>  <SCORE.INTER.ROT>
5

>  <SCORE.INTER.SOLV>
10.304

>  <SCORE.INTER.VDW>
-46.646

>  <SCORE.INTER.norm>
-2.17668

>  <SCORE.INTRA>
0.451263

>  <SCORE.INTRA.DIHEDRAL>
0.384978

>  <SCORE.INTRA.DIHEDRAL.0>
2.1627

>  <SCORE.INTRA.POLAR>
0

>  <SCORE.INTRA.POLAR.0>
0

>  <SCORE.INTRA.REPUL>
0

>  <SCORE.INTRA.REPUL.0>
0

>  <SCORE.INTRA.SOLV>
0.0205147

>  <SCORE.INTRA.SOLV.lig_0>
-5.95779

>  <SCORE.INTRA.VDW>
0.248517

>  <SCORE.INTRA.VDW.0>
3.81702

>  <SCORE.INTRA.norm>
0.0180505

>  <SCORE.RESTR>
0

>  <SCORE.RESTR.CAVITY>
0

>  <SCORE.RESTR.norm>
0

>  <SCORE.SYSTEM>
0

>  <SCORE.SYSTEM.CONST>
0

>  <SCORE.SYSTEM.DIHEDRAL>
0

>  <SCORE.SYSTEM.SOLV>
0

>  <SCORE.SYSTEM.norm>
0

>  <SCORE.heavy>
25

>  <SCORE.norm>
-2.15863

>  <RMSD>
0.595

$$$$
1q8n_lig
 OpenBabel11021811403D
libRbt.so/2013.1/901 2013/11/27
 25 27  0  0  0  0  0  0  0  0999 V2000
    0.5814    1.0984   -1.7258 C   0  0  0  0  0  0  0  0  0  0  0  0
    0.5827    2.1969   -2.9336 C   0  0  0  0  0  0  0  0  0  0  0  0
    2.5470   -4.3987   -2.8831 N   0  0  0  0  0  0  0  0  0  0  0  0
    1.2487    3.3748   -2.8719 C   0  0  0  0  0  0  0  0  0  0  0  0
   -1.2004    2.2897    3.8705 N   0  0  0  0  0  0  0  0  0  0  0  0
    1.2193    4.3473   -3.9887 C   0  0  0  0  0  0  0  0  0  0  0  0
    0.5134    4.0638   -5.1074 C   0  0  0  0  0  0  0  0  0  0  0  0
   -0.1986    2.8104   -5.1966 C   0  0  0  0  0  0  0  0  0  0  0  0
   -0.1659    1.9427   -4.1822 C   0  0  0  0  0  0  0  0  0  0  0  0
    1.1209   -0.4067   -2.0481 C   0  0  0  0  0  0  0  0  0  0  0  0
    1.7977   -0.6789   -3.1831 C   0  0  0  0  0  0  0  0  0  0  0  0
    2.2976   -2.0469   -3.4938 C   0  0  0  0  0  0  0  0  0  0  0  0
    2.0811   -3.0687   -2.6230 C   0  0  0  0  0  0  0  0  0  0  0  0
    1.3444   -2.7859   -1.3767 C   0  0  0  0  0  0  0  0  0  0  0  0
    0.8998   -1.5491   -1.1136 C   0  0  0  0  0  0  0  0  0  0  0  0
    0.0490    1.4777   -0.2021 C   0  0  0  0  0  0  0  0  0  0  0  0
    0.3818    0.5735    0.9525 C   0  0  0  0  0  0  0  0  0  0  0  0
   -0.0079    0.8265    2.2049 C   0  0  0  0  0  0  0  0  0  0  0  0
   -0.7969    2.0227    2.5218 C   0  0  0  0  0  0  0  0  0  0  0  0
   -1.1281    2.8645    1.5207 C   0  0  0  0  0  0  0  0  0  0  0  0
   -0.6942    2.5912    0.1093 C   0  0  0  0  0  0  0  0  0  0  0  0
    2.0785   -5.5306   -2.1430 C   0  0  0  0  0  0  0  0  0  0  0  0
    3.5122   -4.6340   -3.9118 C   0  0  0  0  0  0  0  0  0  0  0  0
   -0.8729    1.3692    4.9212 C   0  0  0  0  0  0  0  0  0  0  0  0
   -1.9372    3.4860    4.2104 C   0  0  0  0  0  0  0  0  0  0  0  0
  1  2  1  0  0  0  0
  1 10  1  0  0  0  0
  1 16  1  0  0  0  0
  2  4  2  0  0  0  0
  2  9  1  0  0  0  0
  4  6  1  0  0  0  0
  6  7  2  0  0  0  0
  7  8  1  0  0  0  0
  8  9  2  0  0  0  0
 10 11  2  0  0  0  0
 10 15  1  0  0  0  0
 11 12  1  0  0  0  0
 12 13  2  0  0  0  0
 13  3  1  0  0  0  0
 13 14  1  0  0  0  0
 14 15  2  0  0  0  0
 16 17  2  0  0  0  0
 16 21  1  0  0  0  0
 17 18  1  0  0  0  0
 18 19  2  0  0  0  0
 19  5  1  0  0  0  0
 19 20  1  0  0  0  0
 20 21  2  0  0  0  0
 22  3  1  0  0  0  0
 23  3  1  0  0  0  0
 24  5  1  0  0  0  0
 25  5  1  0  0  0  0
M  END
>  <CHROM.1>
-121.81353067,13.20552669,-164.43925426,-165.61328456,-1.92210760,0.61262378
0.43654948,-1.09173734,0.12100045,1.19363218,-0.87323847

>  <Name>
1q8n_lig

>  <RI>
0

>  <Rbt.Current_Directory>
/home/itssahil/PROJECTS/Mol_Feturizer/New_Systems/rnas/1q8n

>  <Rbt.Executable>
rbdock ($Id: //depot/dev/client3/rdock/2013.1/src/exe/rbdock.cxx#4 $)

>  <Rbt.Library>
libRbt.so (2013.1, Build901 2013/11/27)

>  <Rbt.Parameter_File>
/export/apps/rDock/src/rDock_2013.1_src/data/scripts/dock_solv.prm

>  <Rbt.Receptor>
prm/pocket_docking_5.prm

>  <SCORE>
-54.2359

>  <SCORE.INTER>
-54.6957

>  <SCORE.INTER.CONST>
1

>  <SCORE.INTER.POLAR>
0

>  <SCORE.INTER.ROT>
5

>  <SCORE.INTER.SOLV>
10.2668

>  <SCORE.INTER.VDW>
-46.8194

>  <SCORE.INTER.norm>
-2.18783

>  <SCORE.INTRA>
0.459725

>  <SCORE.INTRA.DIHEDRAL>
0.803125

>  <SCORE.INTRA.DIHEDRAL.0>
2.1627

>  <SCORE.INTRA.POLAR>
0

>  <SCORE.INTRA.POLAR.0>
0

>  <SCORE.INTRA.REPUL>
0

>  <SCORE.INTRA.REPUL.0>
0

>  <SCORE.INTRA.SOLV>
0.0248375

>  <SCORE.INTRA.SOLV.lig_0>
-5.95779

>  <SCORE.INTRA.VDW>
0.0457439

>  <SCORE.INTRA.VDW.0>
3.81702

>  <SCORE.INTRA.norm>
0.018389

>  <SCORE.RESTR>
0

>  <SCORE.RESTR.CAVITY>
0

>  <SCORE.RESTR.norm>
0

>  <SCORE.SYSTEM>
0

>  <SCORE.SYSTEM.CONST>
0

>  <SCORE.SYSTEM.DIHEDRAL>
0

>  <SCORE.SYSTEM.SOLV>
0

>  <SCORE.SYSTEM.norm>
0

>  <SCORE.heavy>
25

>  <SCORE.norm>
-2.16944

>  <RMSD>
0.595

$$$$
1q8n_lig
 OpenBabel11021811403D
libRbt.so/2013.1/901 2013/11/27
 25 27  0  0  0  0  0  0  0  0999 V2000
    0.5907    1.1046   -1.7451 C   0  0  0  0  0  0  0  0  0  0  0  0
    0.5818    2.2050   -2.9512 C   0  0  0  0  0  0  0  0  0  0  0  0
    2.5665   -4.3847   -2.9220 N   0  0  0  0  0  0  0  0  0  0  0  0
    1.2391    3.3878   -2.8888 C   0  0  0  0  0  0  0  0  0  0  0  0
   -1.1679    2.2783    3.8622 N   0  0  0  0  0  0  0  0  0  0  0  0
    1.2006    4.3616   -4.0041 C   0  0  0  0  0  0  0  0  0  0  0  0
    0.4950    4.0746   -5.1220 C   0  0  0  0  0  0  0  0  0  0  0  0
   -0.2077    2.8160   -5.2121 C   0  0  0  0  0  0  0  0  0  0  0  0
   -0.1668    1.9470   -4.1990 C   0  0  0  0  0  0  0  0  0  0  0  0
    1.1332   -0.3982   -2.0728 C   0  0  0  0  0  0  0  0  0  0  0  0
    1.8490   -0.6560   -3.1870 C   0  0  0  0  0  0  0  0  0  0  0  0
    2.3522   -2.0217   -3.5022 C   0  0  0  0  0  0  0  0  0  0  0  0
    2.0988   -3.0563   -2.6568 C   0  0  0  0  0  0  0  0  0  0  0  0
    1.3192   -2.7894   -1.4333 C   0  0  0  0  0  0  0  0  0  0  0  0
    0.8722   -1.5544   -1.1659 C   0  0  0  0  0  0  0  0  0  0  0  0
    0.0656    1.4799   -0.2180 C   0  0  0  0  0  0  0  0  0  0  0  0
    0.3833    0.5602    0.9287 C   0  0  0  0  0  0  0  0  0  0  0  0
   -0.0015    0.8091    2.1834 C   0  0  0  0  0  0  0  0  0  0  0  0
   -0.7696    2.0160    2.5110 C   0  0  0  0  0  0  0  0  0  0  0  0
   -1.0866    2.8720    1.5174 C   0  0  0  0  0  0  0  0  0  0  0  0
   -0.6582    2.6034    0.1034 C   0  0  0  0  0  0  0  0  0  0  0  0
    3.5103   -4.6693   -3.9597 C   0  0  0  0  0  0  0  0  0  0  0  0
    2.0926   -5.4835   -2.1388 C   0  0  0  0  0  0  0  0  0  0  0  0
   -0.8105    1.3692    4.9131 C   0  0  0  0  0  0  0  0  0  0  0  0
   -1.9291    3.4585    4.2044 C   0  0  0  0  0  0  0  0  0  0  0  0
  1  2  1  0  0  0  0
  1 10  1  0  0  0  0
  1 16  1  0  0  0  0
  2  4  2  0  0  0  0
  2  9  1  0  0  0  0
  4  6  1  0  0  0  0
  6  7  2  0  0  0  0
  7  8  1  0  0  0  0
  8  9  2  0  0  0  0
 10 11  2  0  0  0  0
 10 15  1  0  0  0  0
 11 12  1  0  0  0  0
 12 13  2  0  0  0  0
 13  3  1  0  0  0  0
 13 14  1  0  0  0  0
 14 15  2  0  0  0  0
 16 17  2  0  0  0  0
 16 21  1  0  0  0  0
 17 18  1  0  0  0  0
 18 19  2  0  0  0  0
 19  5  1  0  0  0  0
 19 20  1  0  0  0  0
 20 21  2  0  0  0  0
 22  3  1  0  0  0  0
 23  3  1  0  0  0  0
 24  5  1  0  0  0  0
 25  5  1  0  0  0  0
M  END
>  <CHROM.1>
-122.14909679,15.79163979,-165.71131348,10.76732122,0.52163505,0.62483693
0.44008472,-1.11091362,0.13203419,1.19475092,-0.88200162

>  <Name>
1q8n_lig

>  <RI>
0

>  <Rbt.Current_Directory>
/home/itssahil/PROJECTS/Mol_Feturizer/New_Systems/rnas/1q8n

>  <Rbt.Executable>
rbdock ($Id: //depot/dev/client3/rdock/2013.1/src/exe/rbdock.cxx#4 $)

>  <Rbt.Library>
libRbt.so (2013.1, Build901 2013/11/27)

>  <Rbt.Parameter_File>
/export/apps/rDock/src/rDock_2013.1_src/data/scripts/dock_solv.prm

>  <Rbt.Receptor>
prm/blind_docking_20.prm

>  <SCORE>
-54.2515

>  <SCORE.INTER>
-54.623

>  <SCORE.INTER.CONST>
1

>  <SCORE.INTER.POLAR>
0

>  <SCORE.INTER.ROT>
5

>  <SCORE.INTER.SOLV>
10.2686

>  <SCORE.INTER.VDW>
-46.7716

>  <SCORE.INTER.norm>
-2.18492

>  <SCORE.INTRA>
0.371479

>  <SCORE.INTRA.DIHEDRAL>
0.445888

>  <SCORE.INTRA.DIHEDRAL.0>
2.1627

>  <SCORE.INTRA.POLAR>
0

>  <SCORE.INTRA.POLAR.0>
0

>  <SCORE.INTRA.REPUL>
0

>  <SCORE.INTRA.REPUL.0>
0

>  <SCORE.INTRA.SOLV>
0.0240502

>  <SCORE.INTRA.SOLV.lig_0>
-5.95779

>  <SCORE.INTRA.VDW>
0.13651

>  <SCORE.INTRA.VDW.0>
3.81702

>  <SCORE.INTRA.norm>
0.0148592

>  <SCORE.RESTR>
0

>  <SCORE.RESTR.CAVITY>
0

>  <SCORE.RESTR.norm>
0

>  <SCORE.SYSTEM>
0

>  <SCORE.SYSTEM.CONST>
0

>  <SCORE.SYSTEM.DIHEDRAL>
0

>  <SCORE.SYSTEM.SOLV>
0

>  <SCORE.SYSTEM.norm>
0

>  <SCORE.heavy>
25

>  <SCORE.norm>
-2.17006

>  <RMSD>
0.598

$$$$
1q8n_lig
 OpenBabel11021811403D
libRbt.so/2013.1/901 2013/11/27
 25 27  0  0  0  0  0  0  0  0999 V2000
    0.6322    0.8423   -1.7862 C   0  0  0  0  0  0  0  0  0  0  0  0
    0.5957    1.9840   -2.9527 C   0  0  0  0  0  0  0  0  0  0  0  0
   -1.1687    2.3568    3.6804 N   0  0  0  0  0  0  0  0  0  0  0  0
    1.2267    3.1782   -2.8497 C   0  0  0  0  0  0  0  0  0  0  0  0
    2.4091   -4.8101   -2.6842 N   0  0  0  0  0  0  0  0  0  0  0  0
    1.1636    4.1897   -3.9298 C   0  0  0  0  0  0  0  0  0  0  0  0
    0.4616    3.9266   -5.0559 C   0  0  0  0  0  0  0  0  0  0  0  0
   -0.2131    2.6567   -5.1891 C   0  0  0  0  0  0  0  0  0  0  0  0
   -0.1503    1.7536   -4.2074 C   0  0  0  0  0  0  0  0  0  0  0  0
    0.1399    1.2523   -0.2864 C   0  0  0  0  0  0  0  0  0  0  0  0
    0.4541    0.4942    0.7846 C   0  0  0  0  0  0  0  0  0  0  0  0
    0.0132    0.8533    2.1610 C   0  0  0  0  0  0  0  0  0  0  0  0
   -0.7264    1.9747    2.3720 C   0  0  0  0  0  0  0  0  0  0  0  0
   -1.0759    2.8148    1.2109 C   0  0  0  0  0  0  0  0  0  0  0  0
   -0.6724    2.4760   -0.0216 C   0  0  0  0  0  0  0  0  0  0  0  0
    1.1534   -0.7015   -2.0926 C   0  0  0  0  0  0  0  0  0  0  0  0
    1.0211   -1.7593   -1.0319 C   0  0  0  0  0  0  0  0  0  0  0  0
    1.4122   -3.0230   -1.2180 C   0  0  0  0  0  0  0  0  0  0  0  0
    2.0030   -3.4494   -2.4919 C   0  0  0  0  0  0  0  0  0  0  0  0
    2.1501   -2.5376   -3.4755 C   0  0  0  0  0  0  0  0  0  0  0  0
    1.7127   -1.1146   -3.2783 C   0  0  0  0  0  0  0  0  0  0  0  0
   -1.9383    3.5413    3.9110 C   0  0  0  0  0  0  0  0  0  0  0  0
   -0.8462    1.5461    4.8136 C   0  0  0  0  0  0  0  0  0  0  0  0
    3.3722   -5.1437   -3.6940 C   0  0  0  0  0  0  0  0  0  0  0  0
    1.8700   -5.8761   -1.8703 C   0  0  0  0  0  0  0  0  0  0  0  0
  1  2  1  0  0  0  0
  1 10  1  0  0  0  0
  1 16  1  0  0  0  0
  2  4  2  0  0  0  0
  2  9  1  0  0  0  0
  4  6  1  0  0  0  0
  6  7  2  0  0  0  0
  7  8  1  0  0  0  0
  8  9  2  0  0  0  0
 10 11  2  0  0  0  0
 10 15  1  0  0  0  0
 11 12  1  0  0  0  0
 12 13  2  0  0  0  0
 13  3  1  0  0  0  0
 13 14  1  0  0  0  0
 14 15  2  0  0  0  0
 16 17  2  0  0  0  0
 16 21  1  0  0  0  0
 17 18  1  0  0  0  0
 18 19  2  0  0  0  0
 19  5  1  0  0  0  0
 19 20  1  0  0  0  0
 20 21  2  0  0  0  0
 22  3  1  0  0  0  0
 23  3  1  0  0  0  0
 24  5  1  0  0  0  0
 25  5  1  0  0  0  0
M  END
>  <CHROM.1>
55.78865106,-162.84914693,-172.96529252,179.49240570,-158.60732342,0.59994842
0.24576763,-1.11073522,3.13444508,-1.21300463,2.25998232

>  <Name>
1q8n_lig

>  <RI>
0

>  <Rbt.Current_Directory>
/home/itssahil/PROJECTS/Mol_Feturizer/New_Systems/rnas/1q8n

>  <Rbt.Executable>
rbdock ($Id: //depot/dev/client3/rdock/2013.1/src/exe/rbdock.cxx#4 $)

>  <Rbt.Library>
libRbt.so (2013.1, Build901 2013/11/27)

>  <Rbt.Parameter_File>
/export/apps/rDock/src/rDock_2013.1_src/data/scripts/dock_solv.prm

>  <Rbt.Receptor>
prm/pocket_docking_3.prm

>  <SCORE>
-52.7506

>  <SCORE.INTER>
-53.5485

>  <SCORE.INTER.CONST>
1

>  <SCORE.INTER.POLAR>
0

>  <SCORE.INTER.ROT>
5

>  <SCORE.INTER.SOLV>
10.3787

>  <SCORE.INTER.VDW>
-46.0919

>  <SCORE.INTER.norm>
-2.14194

>  <SCORE.INTRA>
0.797917

>  <SCORE.INTRA.DIHEDRAL>
1.70132

>  <SCORE.INTRA.DIHEDRAL.0>
2.1627

>  <SCORE.INTRA.POLAR>
0

>  <SCORE.INTRA.POLAR.0>
0

>  <SCORE.INTRA.REPUL>
0

>  <SCORE.INTRA.REPUL.0>
0

>  <SCORE.INTRA.SOLV>
0.0268243

>  <SCORE.INTRA.SOLV.lig_0>
-5.95779

>  <SCORE.INTRA.VDW>
-0.0661538

>  <SCORE.INTRA.VDW.0>
3.81702

>  <SCORE.INTRA.norm>
0.0319167

>  <SCORE.RESTR>
0

>  <SCORE.RESTR.CAVITY>
0

>  <SCORE.RESTR.norm>
0

>  <SCORE.SYSTEM>
0

>  <SCORE.SYSTEM.CONST>
0

>  <SCORE.SYSTEM.DIHEDRAL>
0

>  <SCORE.SYSTEM.SOLV>
0

>  <SCORE.SYSTEM.norm>
0

>  <SCORE.heavy>
25

>  <SCORE.norm>
-2.11002

>  <RMSD>
0.598

$$$$
1q8n_lig
 OpenBabel11021811403D
libRbt.so/2013.1/901 2013/11/27
 25 27  0  0  0  0  0  0  0  0999 V2000
    0.5866    1.0147   -1.7979 C   0  0  0  0  0  0  0  0  0  0  0  0
    0.5716    2.1052   -3.0129 C   0  0  0  0  0  0  0  0  0  0  0  0
    2.5922   -4.4732   -2.9302 N   0  0  0  0  0  0  0  0  0  0  0  0
    1.2277    3.2892   -2.9628 C   0  0  0  0  0  0  0  0  0  0  0  0
   -1.1574    2.2427    3.8024 N   0  0  0  0  0  0  0  0  0  0  0  0
    1.1836    4.2538   -4.0859 C   0  0  0  0  0  0  0  0  0  0  0  0
    0.4739    3.9568   -5.1986 C   0  0  0  0  0  0  0  0  0  0  0  0
   -0.2277    2.6967   -5.2755 C   0  0  0  0  0  0  0  0  0  0  0  0
   -0.1817    1.8361   -4.2555 C   0  0  0  0  0  0  0  0  0  0  0  0
    1.1369   -0.4879   -2.1134 C   0  0  0  0  0  0  0  0  0  0  0  0
    1.7903   -0.7669   -3.2604 C   0  0  0  0  0  0  0  0  0  0  0  0
    2.2995   -2.1328   -3.5652 C   0  0  0  0  0  0  0  0  0  0  0  0
    2.1161   -3.1455   -2.6764 C   0  0  0  0  0  0  0  0  0  0  0  0
    1.4054   -2.8551   -1.4168 C   0  0  0  0  0  0  0  0  0  0  0  0
    0.9519   -1.6204   -1.1593 C   0  0  0  0  0  0  0  0  0  0  0  0
    0.0600    1.3997   -0.2737 C   0  0  0  0  0  0  0  0  0  0  0  0
    0.4976    0.5683    0.9005 C   0  0  0  0  0  0  0  0  0  0  0  0
    0.1174    0.8303    2.1540 C   0  0  0  0  0  0  0  0  0  0  0  0
   -0.7647    1.9645    2.4527 C   0  0  0  0  0  0  0  0  0  0  0  0
   -1.1915    2.7394    1.4339 C   0  0  0  0  0  0  0  0  0  0  0  0
   -0.7695    2.4554    0.0211 C   0  0  0  0  0  0  0  0  0  0  0  0
    3.5713   -4.7543   -3.9356 C   0  0  0  0  0  0  0  0  0  0  0  0
    2.0909   -5.5746   -2.1682 C   0  0  0  0  0  0  0  0  0  0  0  0
   -0.8386    1.3214    4.8550 C   0  0  0  0  0  0  0  0  0  0  0  0
   -1.8744    3.4512    4.1412 C   0  0  0  0  0  0  0  0  0  0  0  0
  1  2  1  0  0  0  0
  1 10  1  0  0  0  0
  1 16  1  0  0  0  0
  2  4  2  0  0  0  0
  2  9  1  0  0  0  0
  4  6  1  0  0  0  0
  6  7  2  0  0  0  0
  7  8  1  0  0  0  0
  8  9  2  0  0  0  0
 10 11  2  0  0  0  0
 10 15  1  0  0  0  0
 11 12  1  0  0  0  0
 12 13  2  0  0  0  0
 13  3  1  0  0  0  0
 13 14  1  0  0  0  0
 14 15  2  0  0  0  0
 16 17  2  0  0  0  0
 16 21  1  0  0  0  0
 17 18  1  0  0  0  0
 18 19  2  0  0  0  0
 19  5  1  0  0  0  0
 19 20  1  0  0  0  0
 20 21  2  0  0  0  0
 22  3  1  0  0  0  0
 23  3  1  0  0  0  0
 24  5  1  0  0  0  0
 25  5  1  0  0  0  0
M  END
>  <CHROM.1>
-121.83195664,12.10920257,-159.56951857,16.59324866,-8.10553874,0.62996952
0.36018557,-1.15734305,0.15506430,1.19199333,-0.91419481

>  <Name>
1q8n_lig

>  <RI>
0

>  <Rbt.Current_Directory>
/home/itssahil/PROJECTS/Mol_Feturizer/New_Systems/rnas/1q8n

>  <Rbt.Executable>
rbdock ($Id: //depot/dev/client3/rdock/2013.1/src/exe/rbdock.cxx#4 $)

>  <Rbt.Library>
libRbt.so (2013.1, Build901 2013/11/27)

>  <Rbt.Parameter_File>
/export/apps/rDock/src/rDock_2013.1_src/data/scripts/dock_solv.prm

>  <Rbt.Receptor>
prm/pocket_docking_4.prm

>  <SCORE>
-54.1533

>  <SCORE.INTER>
-54.5986

>  <SCORE.INTER.CONST>
1

>  <SCORE.INTER.POLAR>
0

>  <SCORE.INTER.ROT>
5

>  <SCORE.INTER.SOLV>
10.2347

>  <SCORE.INTER.VDW>
-46.744

>  <SCORE.INTER.norm>
-2.18394

>  <SCORE.INTRA>
0.445336

>  <SCORE.INTRA.DIHEDRAL>
1.29761

>  <SCORE.INTRA.DIHEDRAL.0>
2.1627

>  <SCORE.INTRA.POLAR>
0

>  <SCORE.INTRA.POLAR.0>
0

>  <SCORE.INTRA.REPUL>
0

>  <SCORE.INTRA.REPUL.0>
0

>  <SCORE.INTRA.SOLV>
0.0232592

>  <SCORE.INTRA.SOLV.lig_0>
-5.95779

>  <SCORE.INTRA.VDW>
-0.215101

>  <SCORE.INTRA.VDW.0>
3.81702

>  <SCORE.INTRA.norm>
0.0178134

>  <SCORE.RESTR>
0

>  <SCORE.RESTR.CAVITY>
0

>  <SCORE.RESTR.norm>
0

>  <SCORE.SYSTEM>
0

>  <SCORE.SYSTEM.CONST>
0

>  <SCORE.SYSTEM.DIHEDRAL>
0

>  <SCORE.SYSTEM.SOLV>
0

>  <SCORE.SYSTEM.norm>
0

>  <SCORE.heavy>
25

>  <SCORE.norm>
-2.16613

>  <RMSD>
0.601

$$$$
1q8n_lig
 OpenBabel11021811403D
libRbt.so/2013.1/901 2013/11/27
 25 27  0  0  0  0  0  0  0  0999 V2000
    0.6035    1.1152   -1.7093 C   0  0  0  0  0  0  0  0  0  0  0  0
    0.5980    2.2030   -2.9267 C   0  0  0  0  0  0  0  0  0  0  0  0
    2.5587   -4.3850   -2.8699 N   0  0  0  0  0  0  0  0  0  0  0  0
    1.2708    3.3778   -2.8824 C   0  0  0  0  0  0  0  0  0  0  0  0
   -1.1696    2.3339    3.8838 N   0  0  0  0  0  0  0  0  0  0  0  0
    1.2347    4.3406   -4.0075 C   0  0  0  0  0  0  0  0  0  0  0  0
    0.5156    4.0511   -5.1161 C   0  0  0  0  0  0  0  0  0  0  0  0
   -0.2040    2.8009   -5.1868 C   0  0  0  0  0  0  0  0  0  0  0  0
   -0.1651    1.9419   -4.1651 C   0  0  0  0  0  0  0  0  0  0  0  0
    1.1381   -0.3936   -2.0223 C   0  0  0  0  0  0  0  0  0  0  0  0
    0.8415   -1.4245   -1.2040 C   0  0  0  0  0  0  0  0  0  0  0  0
    1.3210   -2.8084   -1.4740 C   0  0  0  0  0  0  0  0  0  0  0  0
    2.0793   -3.0677   -2.5727 C   0  0  0  0  0  0  0  0  0  0  0  0
    2.4099   -1.9509   -3.4780 C   0  0  0  0  0  0  0  0  0  0  0  0
    1.9717   -0.7109   -3.2189 C   0  0  0  0  0  0  0  0  0  0  0  0
    0.0829    1.5088   -0.1853 C   0  0  0  0  0  0  0  0  0  0  0  0
    0.2253    0.5138    0.9334 C   0  0  0  0  0  0  0  0  0  0  0  0
   -0.1648    0.7717    2.1846 C   0  0  0  0  0  0  0  0  0  0  0  0
   -0.7647    2.0642    2.5360 C   0  0  0  0  0  0  0  0  0  0  0  0
   -0.9209    2.9907    1.5677 C   0  0  0  0  0  0  0  0  0  0  0  0
   -0.4847    2.7126    0.1580 C   0  0  0  0  0  0  0  0  0  0  0  0
    2.1000   -5.5422   -2.1636 C   0  0  0  0  0  0  0  0  0  0  0  0
    3.5281   -4.5812   -3.9029 C   0  0  0  0  0  0  0  0  0  0  0  0
   -1.9302    3.5111    4.1907 C   0  0  0  0  0  0  0  0  0  0  0  0
   -0.8322    1.4334    4.9630 C   0  0  0  0  0  0  0  0  0  0  0  0
  1  2  1  0  0  0  0
  1 10  1  0  0  0  0
  1 16  1  0  0  0  0
  2  4  2  0  0  0  0
  2  9  1  0  0  0  0
  4  6  1  0  0  0  0
  6  7  2  0  0  0  0
  7  8  1  0  0  0  0
  8  9  2  0  0  0  0
 10 11  2  0  0  0  0
 10 15  1  0  0  0  0
 11 12  1  0  0  0  0
 12 13  2  0  0  0  0
 13  3  1  0  0  0  0
 13 14  1  0  0  0  0
 14 15  2  0  0  0  0
 16 17  2  0  0  0  0
 16 21  1  0  0  0  0
 17 18  1  0  0  0  0
 18 19  2  0  0  0  0
 19  5  1  0  0  0  0
 19 20  1  0  0  0  0
 20 21  2  0  0  0  0
 22  3  1  0  0  0  0
 23  3  1  0  0  0  0
 24  5  1  0  0  0  0
 25  5  1  0  0  0  0
M  END
>  <CHROM.1>
-121.53247674,-161.69361961,-174.33829167,10.35422272,-170.83032748,0.63620005
0.45972194,-1.09174303,0.11573912,1.19614332,-0.86529127

>  <Name>
1q8n_lig

>  <RI>
0

>  <Rbt.Current_Directory>
/home/itssahil/PROJECTS/Mol_Feturizer/New_Systems/rnas/1q8n

>  <Rbt.Executable>
rbdock ($Id: //depot/dev/client3/rdock/2013.1/src/exe/rbdock.cxx#4 $)

>  <Rbt.Library>
libRbt.so (2013.1, Build901 2013/11/27)

>  <Rbt.Parameter_File>
/export/apps/rDock/src/rDock_2013.1_src/data/scripts/dock_solv.prm

>  <Rbt.Receptor>
prm/pocket_docking_3.prm

>  <SCORE>
-53.9021

>  <SCORE.INTER>
-54.5309

>  <SCORE.INTER.CONST>
1

>  <SCORE.INTER.POLAR>
0

>  <SCORE.INTER.ROT>
5

>  <SCORE.INTER.SOLV>
10.3006

>  <SCORE.INTER.VDW>
-46.7208

>  <SCORE.INTER.norm>
-2.18123

>  <SCORE.INTRA>
0.628792

>  <SCORE.INTRA.DIHEDRAL>
0.736891

>  <SCORE.INTRA.DIHEDRAL.0>
2.1627

>  <SCORE.INTRA.POLAR>
0

>  <SCORE.INTRA.POLAR.0>
0

>  <SCORE.INTRA.REPUL>
0

>  <SCORE.INTRA.REPUL.0>
0

>  <SCORE.INTRA.SOLV>
0.0238104

>  <SCORE.INTRA.SOLV.lig_0>
-5.95779

>  <SCORE.INTRA.VDW>
0.248441

>  <SCORE.INTRA.VDW.0>
3.81702

>  <SCORE.INTRA.norm>
0.0251517

>  <SCORE.RESTR>
0

>  <SCORE.RESTR.CAVITY>
0

>  <SCORE.RESTR.norm>
0

>  <SCORE.SYSTEM>
0

>  <SCORE.SYSTEM.CONST>
0

>  <SCORE.SYSTEM.DIHEDRAL>
0

>  <SCORE.SYSTEM.SOLV>
0

>  <SCORE.SYSTEM.norm>
0

>  <SCORE.heavy>
25

>  <SCORE.norm>
-2.15608

>  <RMSD>
0.605

$$$$
1q8n_lig
 OpenBabel11021811413D
libRbt.so/2013.1/901 2013/11/27
 25 27  0  0  0  0  0  0  0  0999 V2000
    0.6036    1.1292   -1.7085 C   0  0  0  0  0  0  0  0  0  0  0  0
    0.5982    2.2232   -2.9203 C   0  0  0  0  0  0  0  0  0  0  0  0
    2.5637   -4.3720   -2.8562 N   0  0  0  0  0  0  0  0  0  0  0  0
    1.2590    3.4043   -2.8641 C   0  0  0  0  0  0  0  0  0  0  0  0
   -1.1705    2.3235    3.8896 N   0  0  0  0  0  0  0  0  0  0  0  0
    1.2235    4.3724   -3.9845 C   0  0  0  0  0  0  0  0  0  0  0  0
    0.5171    4.0817   -5.1009 C   0  0  0  0  0  0  0  0  0  0  0  0
   -0.1894    2.8248   -5.1845 C   0  0  0  0  0  0  0  0  0  0  0  0
   -0.1512    1.9610   -4.1668 C   0  0  0  0  0  0  0  0  0  0  0  0
    1.1416   -0.3770   -2.0282 C   0  0  0  0  0  0  0  0  0  0  0  0
    1.8261   -0.6500   -3.1584 C   0  0  0  0  0  0  0  0  0  0  0  0
    2.3248   -2.0190   -3.4666 C   0  0  0  0  0  0  0  0  0  0  0  0
    2.0992   -3.0410   -2.5984 C   0  0  0  0  0  0  0  0  0  0  0  0
    1.3540   -2.7574   -1.3573 C   0  0  0  0  0  0  0  0  0  0  0  0
    0.9107   -1.5196   -1.0964 C   0  0  0  0  0  0  0  0  0  0  0  0
    0.0795    1.5140   -0.1834 C   0  0  0  0  0  0  0  0  0  0  0  0
    0.2867    0.5423    0.9455 C   0  0  0  0  0  0  0  0  0  0  0  0
   -0.1029    0.7951    2.1980 C   0  0  0  0  0  0  0  0  0  0  0  0
   -0.7666    2.0584    2.5406 C   0  0  0  0  0  0  0  0  0  0  0  0
   -0.9824    2.9630    1.5630 C   0  0  0  0  0  0  0  0  0  0  0  0
   -0.5475    2.6904    0.1518 C   0  0  0  0  0  0  0  0  0  0  0  0
    2.0888   -5.5030   -2.1188 C   0  0  0  0  0  0  0  0  0  0  0  0
    3.5337   -4.6092   -3.8799 C   0  0  0  0  0  0  0  0  0  0  0  0
   -1.9305    3.4998    4.2012 C   0  0  0  0  0  0  0  0  0  0  0  0
   -0.8327    1.4190    4.9654 C   0  0  0  0  0  0  0  0  0  0  0  0
  1  2  1  0  0  0  0
  1 10  1  0  0  0  0
  1 16  1  0  0  0  0
  2  4  2  0  0  0  0
  2  9  1  0  0  0  0
  4  6  1  0  0  0  0
  6  7  2  0  0  0  0
  7  8  1  0  0  0  0
  8  9  2  0  0  0  0
 10 11  2  0  0  0  0
 10 15  1  0  0  0  0
 11 12  1  0  0  0  0
 12 13  2  0  0  0  0
 13  3  1  0  0  0  0
 13 14  1  0  0  0  0
 14 15  2  0  0  0  0
 16 17  2  0  0  0  0
 16 21  1  0  0  0  0
 17 18  1  0  0  0  0
 18 19  2  0  0  0  0
 19  5  1  0  0  0  0
 19 20  1  0  0  0  0
 20 21  2  0  0  0  0
 22  3  1  0  0  0  0
 23  3  1  0  0  0  0
 24  5  1  0  0  0  0
 25  5  1  0  0  0  0
M  END
>  <CHROM.1>
-122.14503712,14.00402720,-171.15107616,-165.74837471,-174.07908935,0.63193810
0.46526295,-1.07341333,0.11835968,1.19560385,-0.87163153

>  <Name>
1q8n_lig

>  <RI>
0

>  <Rbt.Current_Directory>
/home/itssahil/PROJECTS/Mol_Feturizer/New_Systems/rnas/1q8n

>  <Rbt.Executable>
rbdock ($Id: //depot/dev/client3/rdock/2013.1/src/exe/rbdock.cxx#4 $)

>  <Rbt.Library>
libRbt.so (2013.1, Build901 2013/11/27)

>  <Rbt.Parameter_File>
/export/apps/rDock/src/rDock_2013.1_src/data/scripts/dock_solv.prm

>  <Rbt.Receptor>
prm/pocket_docking_7.prm

>  <SCORE>
-54.2839

>  <SCORE.INTER>
-54.9206

>  <SCORE.INTER.CONST>
1

>  <SCORE.INTER.POLAR>
0

>  <SCORE.INTER.ROT>
5

>  <SCORE.INTER.SOLV>
10.2825

>  <SCORE.INTER.VDW>
-46.9745

>  <SCORE.INTER.norm>
-2.19682

>  <SCORE.INTRA>
0.636677

>  <SCORE.INTRA.DIHEDRAL>
0.909461

>  <SCORE.INTRA.DIHEDRAL.0>
2.1627

>  <SCORE.INTRA.POLAR>
0

>  <SCORE.INTRA.POLAR.0>
0

>  <SCORE.INTRA.REPUL>
0

>  <SCORE.INTRA.REPUL.0>
0

>  <SCORE.INTRA.SOLV>
0.0272824

>  <SCORE.INTRA.SOLV.lig_0>
-5.95779

>  <SCORE.INTRA.VDW>
0.168305

>  <SCORE.INTRA.VDW.0>
3.81702

>  <SCORE.INTRA.norm>
0.0254671

>  <SCORE.RESTR>
0

>  <SCORE.RESTR.CAVITY>
0

>  <SCORE.RESTR.norm>
0

>  <SCORE.SYSTEM>
0

>  <SCORE.SYSTEM.CONST>
0

>  <SCORE.SYSTEM.DIHEDRAL>
0

>  <SCORE.SYSTEM.SOLV>
0

>  <SCORE.SYSTEM.norm>
0

>  <SCORE.heavy>
25

>  <SCORE.norm>
-2.17136

>  <RMSD>
0.605

$$$$
1q8n_lig
 OpenBabel11021811403D
libRbt.so/2013.1/901 2013/11/27
 25 27  0  0  0  0  0  0  0  0999 V2000
    0.5959    1.0970   -1.6935 C   0  0  0  0  0  0  0  0  0  0  0  0
    0.5883    2.1883   -2.9078 C   0  0  0  0  0  0  0  0  0  0  0  0
    2.5755   -4.3919   -2.8658 N   0  0  0  0  0  0  0  0  0  0  0  0
    1.2396    3.3747   -2.8507 C   0  0  0  0  0  0  0  0  0  0  0  0
   -1.1758    2.3043    3.9026 N   0  0  0  0  0  0  0  0  0  0  0  0
    1.2024    4.3401   -3.9734 C   0  0  0  0  0  0  0  0  0  0  0  0
    0.5043    4.0413   -5.0929 C   0  0  0  0  0  0  0  0  0  0  0  0
   -0.1919    2.7788   -5.1774 C   0  0  0  0  0  0  0  0  0  0  0  0
   -0.1524    1.9176   -4.1576 C   0  0  0  0  0  0  0  0  0  0  0  0
    1.1371   -0.4087   -2.0098 C   0  0  0  0  0  0  0  0  0  0  0  0
    0.8279   -1.4464   -1.2049 C   0  0  0  0  0  0  0  0  0  0  0  0
    1.3131   -2.8277   -1.4781 C   0  0  0  0  0  0  0  0  0  0  0  0
    2.0899   -3.0774   -2.5660 C   0  0  0  0  0  0  0  0  0  0  0  0
    2.4345   -1.9530   -3.4565 C   0  0  0  0  0  0  0  0  0  0  0  0
    1.9908   -0.7156   -3.1948 C   0  0  0  0  0  0  0  0  0  0  0  0
    0.0707    1.4842   -0.1694 C   0  0  0  0  0  0  0  0  0  0  0  0
    0.3133    0.5320    0.9691 C   0  0  0  0  0  0  0  0  0  0  0  0
   -0.0753    0.7880    2.2212 C   0  0  0  0  0  0  0  0  0  0  0  0
   -0.7731    2.0354    2.5539 C   0  0  0  0  0  0  0  0  0  0  0  0
   -1.0214    2.9220    1.5676 C   0  0  0  0  0  0  0  0  0  0  0  0
   -0.5879    2.6458    0.1567 C   0  0  0  0  0  0  0  0  0  0  0  0
    3.5421   -4.6331   -3.8934 C   0  0  0  0  0  0  0  0  0  0  0  0
    2.0970   -5.5205   -2.1291 C   0  0  0  0  0  0  0  0  0  0  0  0
   -1.9382    3.4798    4.2111 C   0  0  0  0  0  0  0  0  0  0  0  0
   -0.8343    1.4045    4.9811 C   0  0  0  0  0  0  0  0  0  0  0  0
  1  2  1  0  0  0  0
  1 10  1  0  0  0  0
  1 16  1  0  0  0  0
  2  4  2  0  0  0  0
  2  9  1  0  0  0  0
  4  6  1  0  0  0  0
  6  7  2  0  0  0  0
  7  8  1  0  0  0  0
  8  9  2  0  0  0  0
 10 11  2  0  0  0  0
 10 15  1  0  0  0  0
 11 12  1  0  0  0  0
 12 13  2  0  0  0  0
 13  3  1  0  0  0  0
 13 14  1  0  0  0  0
 14 15  2  0  0  0  0
 16 17  2  0  0  0  0
 16 21  1  0  0  0  0
 17 18  1  0  0  0  0
 18 19  2  0  0  0  0
 19  5  1  0  0  0  0
 19 20  1  0  0  0  0
 20 21  2  0  0  0  0
 22  3  1  0  0  0  0
 23  3  1  0  0  0  0
 24  5  1  0  0  0  0
 25  5  1  0  0  0  0
M  END
>  <CHROM.1>
-122.58570486,-160.77952660,-169.47831949,-170.97034267,-175.69534451,0.63350699
0.44173100,-1.07521856,0.12629472,1.19296234,-0.87477142

>  <Name>
1q8n_lig

>  <RI>
0

>  <Rbt.Current_Directory>
/home/itssahil/PROJECTS/Mol_Feturizer/New_Systems/rnas/1q8n

>  <Rbt.Executable>
rbdock ($Id: //depot/dev/client3/rdock/2013.1/src/exe/rbdock.cxx#4 $)

>  <Rbt.Library>
libRbt.so (2013.1, Build901 2013/11/27)

>  <Rbt.Parameter_File>
/export/apps/rDock/src/rDock_2013.1_src/data/scripts/dock_solv.prm

>  <Rbt.Receptor>
prm/pocket_docking_3.prm

>  <SCORE>
-54.0265

>  <SCORE.INTER>
-54.5341

>  <SCORE.INTER.CONST>
1

>  <SCORE.INTER.POLAR>
0

>  <SCORE.INTER.ROT>
5

>  <SCORE.INTER.SOLV>
10.2705

>  <SCORE.INTER.VDW>
-46.7129

>  <SCORE.INTER.norm>
-2.18136

>  <SCORE.INTRA>
0.507659

>  <SCORE.INTRA.DIHEDRAL>
0.38642

>  <SCORE.INTRA.DIHEDRAL.0>
2.1627

>  <SCORE.INTRA.POLAR>
0

>  <SCORE.INTRA.POLAR.0>
0

>  <SCORE.INTRA.REPUL>
0

>  <SCORE.INTRA.REPUL.0>
0

>  <SCORE.INTRA.SOLV>
0.0223809

>  <SCORE.INTRA.SOLV.lig_0>
-5.95779

>  <SCORE.INTRA.VDW>
0.303258

>  <SCORE.INTRA.VDW.0>
3.81702

>  <SCORE.INTRA.norm>
0.0203063

>  <SCORE.RESTR>
0

>  <SCORE.RESTR.CAVITY>
0

>  <SCORE.RESTR.norm>
0

>  <SCORE.SYSTEM>
0

>  <SCORE.SYSTEM.CONST>
0

>  <SCORE.SYSTEM.DIHEDRAL>
0

>  <SCORE.SYSTEM.SOLV>
0

>  <SCORE.SYSTEM.norm>
0

>  <SCORE.heavy>
25

>  <SCORE.norm>
-2.16106

>  <RMSD>
0.608

$$$$
1q8n_lig
 OpenBabel11021811403D
libRbt.so/2013.1/901 2013/11/27
 25 27  0  0  0  0  0  0  0  0999 V2000
    0.6158    0.8669   -1.7729 C   0  0  0  0  0  0  0  0  0  0  0  0
    0.5892    1.9988   -2.9493 C   0  0  0  0  0  0  0  0  0  0  0  0
   -1.1940    2.3998    3.6857 N   0  0  0  0  0  0  0  0  0  0  0  0
    1.2344    3.1864   -2.8586 C   0  0  0  0  0  0  0  0  0  0  0  0
    2.3777   -4.7993   -2.6110 N   0  0  0  0  0  0  0  0  0  0  0  0
    1.1799    4.1891   -3.9474 C   0  0  0  0  0  0  0  0  0  0  0  0
    0.4716    3.9243   -5.0691 C   0  0  0  0  0  0  0  0  0  0  0  0
   -0.2183    2.6612   -5.1892 C   0  0  0  0  0  0  0  0  0  0  0  0
   -0.1631    1.7661   -4.1998 C   0  0  0  0  0  0  0  0  0  0  0  0
    0.1195    1.2922   -0.2786 C   0  0  0  0  0  0  0  0  0  0  0  0
   -0.4538    2.4913   -0.0469 C   0  0  0  0  0  0  0  0  0  0  0  0
   -0.9129    2.8963    1.3107 C   0  0  0  0  0  0  0  0  0  0  0  0
   -0.7640    2.0496    2.3643 C   0  0  0  0  0  0  0  0  0  0  0  0
   -0.1407    0.7340    2.1260 C   0  0  0  0  0  0  0  0  0  0  0  0
    0.2685    0.3862    0.8979 C   0  0  0  0  0  0  0  0  0  0  0  0
    1.1311   -0.6818   -2.0639 C   0  0  0  0  0  0  0  0  0  0  0  0
    1.0323   -1.7186   -0.9791 C   0  0  0  0  0  0  0  0  0  0  0  0
    1.4204   -2.9851   -1.1517 C   0  0  0  0  0  0  0  0  0  0  0  0
    1.9746   -3.4357   -2.4337 C   0  0  0  0  0  0  0  0  0  0  0  0
    2.0907   -2.5433   -3.4390 C   0  0  0  0  0  0  0  0  0  0  0  0
    1.6563   -1.1174   -3.2572 C   0  0  0  0  0  0  0  0  0  0  0  0
   -0.8860    1.5940    4.8278 C   0  0  0  0  0  0  0  0  0  0  0  0
   -1.9574    3.5897    3.9016 C   0  0  0  0  0  0  0  0  0  0  0  0
    1.8424   -5.8293   -1.7678 C   0  0  0  0  0  0  0  0  0  0  0  0
    3.3222   -5.1749   -3.6388 C   0  0  0  0  0  0  0  0  0  0  0  0
  1  2  1  0  0  0  0
  1 10  1  0  0  0  0
  1 16  1  0  0  0  0
  2  4  2  0  0  0  0
  2  9  1  0  0  0  0
  4  6  1  0  0  0  0
  6  7  2  0  0  0  0
  7  8  1  0  0  0  0
  8  9  2  0  0  0  0
 10 11  2  0  0  0  0
 10 15  1  0  0  0  0
 11 12  1  0  0  0  0
 12 13  2  0  0  0  0
 13  3  1  0  0  0  0
 13 14  1  0  0  0  0
 14 15  2  0  0  0  0
 16 17  2  0  0  0  0
 16 21  1  0  0  0  0
 17 18  1  0  0  0  0
 18 19  2  0  0  0  0
 19  5  1  0  0  0  0
 19 20  1  0  0  0  0
 20 21  2  0  0  0  0
 22  3  1  0  0  0  0
 23  3  1  0  0  0  0
 24  5  1  0  0  0  0
 25  5  1  0  0  0  0
M  END
>  <CHROM.1>
56.35221093,8.10161628,-175.01346209,-171.64667678,21.98420801,0.58499019
0.25851835,-1.08449431,-3.13166943,-1.21552951,2.27468992

>  <Name>
1q8n_lig

>  <RI>
0

>  <Rbt.Current_Directory>
/home/itssahil/PROJECTS/Mol_Feturizer/New_Systems/rnas/1q8n

>  <Rbt.Executable>
rbdock ($Id: //depot/dev/client3/rdock/2013.1/src/exe/rbdock.cxx#4 $)

>  <Rbt.Library>
libRbt.so (2013.1, Build901 2013/11/27)

>  <Rbt.Parameter_File>
/export/apps/rDock/src/rDock_2013.1_src/data/scripts/dock_solv.prm

>  <Rbt.Receptor>
prm/pocket_docking_4.prm

>  <SCORE>
-52.9936

>  <SCORE.INTER>
-53.9272

>  <SCORE.INTER.CONST>
1

>  <SCORE.INTER.POLAR>
0

>  <SCORE.INTER.ROT>
5

>  <SCORE.INTER.SOLV>
10.389

>  <SCORE.INTER.VDW>
-46.3478

>  <SCORE.INTER.norm>
-2.15709

>  <SCORE.INTRA>
0.928157

>  <SCORE.INTRA.DIHEDRAL>
2.06019

>  <SCORE.INTRA.DIHEDRAL.0>
2.1627

>  <SCORE.INTRA.POLAR>
0

>  <SCORE.INTRA.POLAR.0>
0

>  <SCORE.INTRA.REPUL>
0

>  <SCORE.INTRA.REPUL.0>
0

>  <SCORE.INTRA.SOLV>
0.0329975

>  <SCORE.INTRA.SOLV.lig_0>
-5.95779

>  <SCORE.INTRA.VDW>
-0.118436

>  <SCORE.INTRA.VDW.0>
3.81702

>  <SCORE.INTRA.norm>
0.0371263

>  <SCORE.RESTR>
0.00543471

>  <SCORE.RESTR.CAVITY>
0.00543471

>  <SCORE.RESTR.norm>
0.000217388

>  <SCORE.SYSTEM>
0

>  <SCORE.SYSTEM.CONST>
0

>  <SCORE.SYSTEM.DIHEDRAL>
0

>  <SCORE.SYSTEM.SOLV>
0

>  <SCORE.SYSTEM.norm>
0

>  <SCORE.heavy>
25

>  <SCORE.norm>
-2.11974

>  <RMSD>
0.610

$$$$
1q8n_lig
 OpenBabel11021811403D
libRbt.so/2013.1/901 2013/11/27
 25 27  0  0  0  0  0  0  0  0999 V2000
    0.5252    1.0148   -1.8046 C   0  0  0  0  0  0  0  0  0  0  0  0
    0.4786    2.0903   -3.0320 C   0  0  0  0  0  0  0  0  0  0  0  0
    2.5279   -4.4786   -2.9153 N   0  0  0  0  0  0  0  0  0  0  0  0
   -0.2243    1.8924   -4.1729 C   0  0  0  0  0  0  0  0  0  0  0  0
   -1.1567    2.2588    3.8112 N   0  0  0  0  0  0  0  0  0  0  0  0
   -0.2353    2.8920   -5.2659 C   0  0  0  0  0  0  0  0  0  0  0  0
    0.4699    4.0389   -5.1340 C   0  0  0  0  0  0  0  0  0  0  0  0
    1.2209    4.2729   -3.9227 C   0  0  0  0  0  0  0  0  0  0  0  0
    1.2244    3.3632   -2.9452 C   0  0  0  0  0  0  0  0  0  0  0  0
    1.0748   -0.4893   -2.1141 C   0  0  0  0  0  0  0  0  0  0  0  0
    1.7517   -0.7671   -3.2478 C   0  0  0  0  0  0  0  0  0  0  0  0
    2.2607   -2.1343   -3.5469 C   0  0  0  0  0  0  0  0  0  0  0  0
    2.0529   -3.1497   -2.6665 C   0  0  0  0  0  0  0  0  0  0  0  0
    1.3163   -2.8607   -1.4215 C   0  0  0  0  0  0  0  0  0  0  0  0
    0.8634   -1.6247   -1.1689 C   0  0  0  0  0  0  0  0  0  0  0  0
    0.0308    1.4160   -0.2738 C   0  0  0  0  0  0  0  0  0  0  0  0
    0.1637    0.4154    0.8409 C   0  0  0  0  0  0  0  0  0  0  0  0
   -0.2064    0.6788    2.0971 C   0  0  0  0  0  0  0  0  0  0  0  0
   -0.7732    1.9834    2.4582 C   0  0  0  0  0  0  0  0  0  0  0  0
   -0.9197    2.9156    1.4939 C   0  0  0  0  0  0  0  0  0  0  0  0
   -0.5059    2.6314    0.0786 C   0  0  0  0  0  0  0  0  0  0  0  0
    2.0705   -5.6067   -2.1624 C   0  0  0  0  0  0  0  0  0  0  0  0
    3.4910   -4.7168   -3.9453 C   0  0  0  0  0  0  0  0  0  0  0  0
   -0.7972    1.3543    4.8652 C   0  0  0  0  0  0  0  0  0  0  0  0
   -1.9048    3.4478    4.1517 C   0  0  0  0  0  0  0  0  0  0  0  0
  1  2  1  0  0  0  0
  1 10  1  0  0  0  0
  1 16  1  0  0  0  0
  2  4  2  0  0  0  0
  2  9  1  0  0  0  0
  4  6  1  0  0  0  0
  6  7  2  0  0  0  0
  7  8  1  0  0  0  0
  8  9  2  0  0  0  0
 10 11  2  0  0  0  0
 10 15  1  0  0  0  0
 11 12  1  0  0  0  0
 12 13  2  0  0  0  0
 13  3  1  0  0  0  0
 13 14  1  0  0  0  0
 14 15  2  0  0  0  0
 16 17  2  0  0  0  0
 16 21  1  0  0  0  0
 17 18  1  0  0  0  0
 18 19  2  0  0  0  0
 19  5  1  0  0  0  0
 19 20  1  0  0  0  0
 20 21  2  0  0  0  0
 22  3  1  0  0  0  0
 23  3  1  0  0  0  0
 24  5  1  0  0  0  0
 25  5  1  0  0  0  0
M  END
>  <CHROM.1>
58.68849815,14.84541698,-176.61414026,-165.73828959,10.09038539,0.59581999
0.38100309,-1.14199983,0.10367921,1.20162916,-0.87586444

>  <Name>
1q8n_lig

>  <RI>
0

>  <Rbt.Current_Directory>
/home/itssahil/PROJECTS/Mol_Feturizer/New_Systems/rnas/1q8n

>  <Rbt.Executable>
rbdock ($Id: //depot/dev/client3/rdock/2013.1/src/exe/rbdock.cxx#4 $)

>  <Rbt.Library>
libRbt.so (2013.1, Build901 2013/11/27)

>  <Rbt.Parameter_File>
/export/apps/rDock/src/rDock_2013.1_src/data/scripts/dock_solv.prm

>  <Rbt.Receptor>
prm/pocket_docking_5.prm

>  <SCORE>
-53.4447

>  <SCORE.INTER>
-54.1211

>  <SCORE.INTER.CONST>
1

>  <SCORE.INTER.POLAR>
0

>  <SCORE.INTER.ROT>
5

>  <SCORE.INTER.SOLV>
10.2509

>  <SCORE.INTER.VDW>
-46.431

>  <SCORE.INTER.norm>
-2.16484

>  <SCORE.INTRA>
0.676401

>  <SCORE.INTRA.DIHEDRAL>
1.1665

>  <SCORE.INTRA.DIHEDRAL.0>
2.1627

>  <SCORE.INTRA.POLAR>
0

>  <SCORE.INTRA.POLAR.0>
0

>  <SCORE.INTRA.REPUL>
0

>  <SCORE.INTRA.REPUL.0>
0

>  <SCORE.INTRA.SOLV>
0.0280107

>  <SCORE.INTRA.SOLV.lig_0>
-5.95779

>  <SCORE.INTRA.VDW>
0.0791467

>  <SCORE.INTRA.VDW.0>
3.81702

>  <SCORE.INTRA.norm>
0.027056

>  <SCORE.RESTR>
0

>  <SCORE.RESTR.CAVITY>
0

>  <SCORE.RESTR.norm>
0

>  <SCORE.SYSTEM>
0

>  <SCORE.SYSTEM.CONST>
0

>  <SCORE.SYSTEM.DIHEDRAL>
0

>  <SCORE.SYSTEM.SOLV>
0

>  <SCORE.SYSTEM.norm>
0

>  <SCORE.heavy>
25

>  <SCORE.norm>
-2.13779

>  <RMSD>
0.616

$$$$
1q8n_lig
 OpenBabel11021811403D
libRbt.so/2013.1/901 2013/11/27
 25 27  0  0  0  0  0  0  0  0999 V2000
    0.6188    1.0969   -1.7527 C   0  0  0  0  0  0  0  0  0  0  0  0
    0.6009    2.1948   -2.9609 C   0  0  0  0  0  0  0  0  0  0  0  0
    2.6200   -4.3759   -2.9632 N   0  0  0  0  0  0  0  0  0  0  0  0
    1.2690    3.3721   -2.9111 C   0  0  0  0  0  0  0  0  0  0  0  0
   -1.1480    2.2556    3.8552 N   0  0  0  0  0  0  0  0  0  0  0  0
    1.2217    4.3440   -4.0278 C   0  0  0  0  0  0  0  0  0  0  0  0
    0.4967    4.0606   -5.1342 C   0  0  0  0  0  0  0  0  0  0  0  0
   -0.2179    2.8079   -5.2108 C   0  0  0  0  0  0  0  0  0  0  0  0
   -0.1689    1.9407   -4.1966 C   0  0  0  0  0  0  0  0  0  0  0  0
    1.1656   -0.4045   -2.0795 C   0  0  0  0  0  0  0  0  0  0  0  0
    0.8013   -1.4614   -1.3241 C   0  0  0  0  0  0  0  0  0  0  0  0
    1.2906   -2.8390   -1.6078 C   0  0  0  0  0  0  0  0  0  0  0  0
    2.1281   -3.0656   -2.6550 C   0  0  0  0  0  0  0  0  0  0  0  0
    2.5335   -1.9201   -3.4913 C   0  0  0  0  0  0  0  0  0  0  0  0
    2.0851   -0.6863   -3.2208 C   0  0  0  0  0  0  0  0  0  0  0  0
    0.0985    1.4733   -0.2242 C   0  0  0  0  0  0  0  0  0  0  0  0
    0.2700    0.4778    0.8900 C   0  0  0  0  0  0  0  0  0  0  0  0
   -0.1184    0.7225    2.1444 C   0  0  0  0  0  0  0  0  0  0  0  0
   -0.7451    1.9998    2.5041 C   0  0  0  0  0  0  0  0  0  0  0  0
   -0.9280    2.9260    1.5401 C   0  0  0  0  0  0  0  0  0  0  0  0
   -0.4941    2.6628    0.1269 C   0  0  0  0  0  0  0  0  0  0  0  0
    3.6100   -4.6023   -3.9718 C   0  0  0  0  0  0  0  0  0  0  0  0
    2.1242   -5.5150   -2.2548 C   0  0  0  0  0  0  0  0  0  0  0  0
   -0.7918    1.3429    4.9033 C   0  0  0  0  0  0  0  0  0  0  0  0
   -1.9128    3.4327    4.2000 C   0  0  0  0  0  0  0  0  0  0  0  0
  1  2  1  0  0  0  0
  1 10  1  0  0  0  0
  1 16  1  0  0  0  0
  2  4  2  0  0  0  0
  2  9  1  0  0  0  0
  4  6  1  0  0  0  0
  6  7  2  0  0  0  0
  7  8  1  0  0  0  0
  8  9  2  0  0  0  0
 10 11  2  0  0  0  0
 10 15  1  0  0  0  0
 11 12  1  0  0  0  0
 12 13  2  0  0  0  0
 13  3  1  0  0  0  0
 13 14  1  0  0  0  0
 14 15  2  0  0  0  0
 16 17  2  0  0  0  0
 16 21  1  0  0  0  0
 17 18  1  0  0  0  0
 18 19  2  0  0  0  0
 19  5  1  0  0  0  0
 19 20  1  0  0  0  0
 20 21  2  0  0  0  0
 22  3  1  0  0  0  0
 23  3  1  0  0  0  0
 24  5  1  0  0  0  0
 25  5  1  0  0  0  0
M  END
>  <CHROM.1>
-121.19657185,-156.85561489,-173.47235070,-173.20671732,8.00939035,0.65939838
0.43658830,-1.13812349,3.01182552,-1.19102405,2.26971742

>  <Name>
1q8n_lig

>  <RI>
0

>  <Rbt.Current_Directory>
/home/itssahil/PROJECTS/Mol_Feturizer/New_Systems/rnas/1q8n

>  <Rbt.Executable>
rbdock ($Id: //depot/dev/client3/rdock/2013.1/src/exe/rbdock.cxx#4 $)

>  <Rbt.Library>
libRbt.so (2013.1, Build901 2013/11/27)

>  <Rbt.Parameter_File>
/export/apps/rDock/src/rDock_2013.1_src/data/scripts/dock_solv.prm

>  <Rbt.Receptor>
prm/pocket_docking_4.prm

>  <SCORE>
-54.0685

>  <SCORE.INTER>
-54.4746

>  <SCORE.INTER.CONST>
1

>  <SCORE.INTER.POLAR>
0

>  <SCORE.INTER.ROT>
5

>  <SCORE.INTER.SOLV>
10.2375

>  <SCORE.INTER.VDW>
-46.6622

>  <SCORE.INTER.norm>
-2.17898

>  <SCORE.INTRA>
0.406077

>  <SCORE.INTRA.DIHEDRAL>
0.42609

>  <SCORE.INTRA.DIHEDRAL.0>
2.1627

>  <SCORE.INTRA.POLAR>
0

>  <SCORE.INTRA.POLAR.0>
0

>  <SCORE.INTRA.REPUL>
0

>  <SCORE.INTRA.REPUL.0>
0

>  <SCORE.INTRA.SOLV>
0.0190393

>  <SCORE.INTRA.SOLV.lig_0>
-5.95779

>  <SCORE.INTRA.VDW>
0.183512

>  <SCORE.INTRA.VDW.0>
3.81702

>  <SCORE.INTRA.norm>
0.0162431

>  <SCORE.RESTR>
0

>  <SCORE.RESTR.CAVITY>
0

>  <SCORE.RESTR.norm>
0

>  <SCORE.SYSTEM>
0

>  <SCORE.SYSTEM.CONST>
0

>  <SCORE.SYSTEM.DIHEDRAL>
0

>  <SCORE.SYSTEM.SOLV>
0

>  <SCORE.SYSTEM.norm>
0

>  <SCORE.heavy>
25

>  <SCORE.norm>
-2.16274

>  <RMSD>
0.617

$$$$
1q8n_lig
 OpenBabel11021811413D
libRbt.so/2013.1/901 2013/11/27
 25 27  0  0  0  0  0  0  0  0999 V2000
    0.5837    1.0247   -1.7785 C   0  0  0  0  0  0  0  0  0  0  0  0
    0.5582    2.1099   -2.9980 C   0  0  0  0  0  0  0  0  0  0  0  0
    2.5820   -4.4673   -2.9040 N   0  0  0  0  0  0  0  0  0  0  0  0
    1.1957    3.3041   -2.9493 C   0  0  0  0  0  0  0  0  0  0  0  0
   -1.1375    2.2548    3.8284 N   0  0  0  0  0  0  0  0  0  0  0  0
    1.1425    4.2635   -4.0765 C   0  0  0  0  0  0  0  0  0  0  0  0
    0.4432    3.9511   -5.1916 C   0  0  0  0  0  0  0  0  0  0  0  0
   -0.2384    2.6800   -5.2670 C   0  0  0  0  0  0  0  0  0  0  0  0
   -0.1844    1.8243   -4.2433 C   0  0  0  0  0  0  0  0  0  0  0  0
    1.1320   -0.4791   -2.0921 C   0  0  0  0  0  0  0  0  0  0  0  0
    1.7873   -0.7598   -3.2376 C   0  0  0  0  0  0  0  0  0  0  0  0
    2.2948   -2.1267   -3.5407 C   0  0  0  0  0  0  0  0  0  0  0  0
    2.1077   -3.1387   -2.6518 C   0  0  0  0  0  0  0  0  0  0  0  0
    1.3948   -2.8465   -1.3939 C   0  0  0  0  0  0  0  0  0  0  0  0
    0.9430   -1.6108   -1.1378 C   0  0  0  0  0  0  0  0  0  0  0  0
    0.0695    1.4159   -0.2516 C   0  0  0  0  0  0  0  0  0  0  0  0
    0.3802    0.4993    0.8994 C   0  0  0  0  0  0  0  0  0  0  0  0
    0.0035    0.7608    2.1541 C   0  0  0  0  0  0  0  0  0  0  0  0
   -0.7480    1.9792    2.4772 C   0  0  0  0  0  0  0  0  0  0  0  0
   -1.0582    2.8330    1.4796 C   0  0  0  0  0  0  0  0  0  0  0  0
   -0.6388    2.5504    0.0657 C   0  0  0  0  0  0  0  0  0  0  0  0
    2.0780   -5.6053   -2.1973 C   0  0  0  0  0  0  0  0  0  0  0  0
    3.5921   -4.6949   -3.8904 C   0  0  0  0  0  0  0  0  0  0  0  0
   -1.8871    3.4378    4.1401 C   0  0  0  0  0  0  0  0  0  0  0  0
   -0.7953    1.3546    4.9064 C   0  0  0  0  0  0  0  0  0  0  0  0
  1  2  1  0  0  0  0
  1 10  1  0  0  0  0
  1 16  1  0  0  0  0
  2  4  2  0  0  0  0
  2  9  1  0  0  0  0
  4  6  1  0  0  0  0
  6  7  2  0  0  0  0
  7  8  1  0  0  0  0
  8  9  2  0  0  0  0
 10 11  2  0  0  0  0
 10 15  1  0  0  0  0
 11 12  1  0  0  0  0
 12 13  2  0  0  0  0
 13  3  1  0  0  0  0
 13 14  1  0  0  0  0
 14 15  2  0  0  0  0
 16 17  2  0  0  0  0
 16 21  1  0  0  0  0
 17 18  1  0  0  0  0
 18 19  2  0  0  0  0
 19  5  1  0  0  0  0
 19 20  1  0  0  0  0
 20 21  2  0  0  0  0
 22  3  1  0  0  0  0
 23  3  1  0  0  0  0
 24  5  1  0  0  0  0
 25  5  1  0  0  0  0
M  END
>  <CHROM.1>
-122.98694304,12.75266228,-166.84906080,-161.50058102,-179.19579230,0.62759925
0.36824001,-1.13831900,0.15976173,1.19500367,-0.91919329

>  <Name>
1q8n_lig

>  <RI>
0

>  <Rbt.Current_Directory>
/home/itssahil/PROJECTS/Mol_Feturizer/New_Systems/rnas/1q8n

>  <Rbt.Executable>
rbdock ($Id: //depot/dev/client3/rdock/2013.1/src/exe/rbdock.cxx#4 $)

>  <Rbt.Library>
libRbt.so (2013.1, Build901 2013/11/27)

>  <Rbt.Parameter_File>
/export/apps/rDock/src/rDock_2013.1_src/data/scripts/dock_solv.prm

>  <Rbt.Receptor>
prm/pocket_docking_6.prm

>  <SCORE>
-53.9844

>  <SCORE.INTER>
-54.6412

>  <SCORE.INTER.CONST>
1

>  <SCORE.INTER.POLAR>
0

>  <SCORE.INTER.ROT>
5

>  <SCORE.INTER.SOLV>
10.1587

>  <SCORE.INTER.VDW>
-46.7471

>  <SCORE.INTER.norm>
-2.18565

>  <SCORE.INTRA>
0.656827

>  <SCORE.INTRA.DIHEDRAL>
1.28949

>  <SCORE.INTRA.DIHEDRAL.0>
2.1627

>  <SCORE.INTRA.POLAR>
0

>  <SCORE.INTRA.POLAR.0>
0

>  <SCORE.INTRA.REPUL>
0

>  <SCORE.INTRA.REPUL.0>
0

>  <SCORE.INTRA.SOLV>
0.0271682

>  <SCORE.INTRA.SOLV.lig_0>
-5.95779

>  <SCORE.INTRA.VDW>
-0.00150338

>  <SCORE.INTRA.VDW.0>
3.81702

>  <SCORE.INTRA.norm>
0.0262731

>  <SCORE.RESTR>
0

>  <SCORE.RESTR.CAVITY>
0

>  <SCORE.RESTR.norm>
0

>  <SCORE.SYSTEM>
0

>  <SCORE.SYSTEM.CONST>
0

>  <SCORE.SYSTEM.DIHEDRAL>
0

>  <SCORE.SYSTEM.SOLV>
0

>  <SCORE.SYSTEM.norm>
0

>  <SCORE.heavy>
25

>  <SCORE.norm>
-2.15938

>  <RMSD>
0.617

$$$$
1q8n_lig
 OpenBabel11021811403D
libRbt.so/2013.1/901 2013/11/27
 25 27  0  0  0  0  0  0  0  0999 V2000
    0.6221    1.0997   -1.7496 C   0  0  0  0  0  0  0  0  0  0  0  0
    0.6037    2.1973   -2.9580 C   0  0  0  0  0  0  0  0  0  0  0  0
    2.6340   -4.3699   -2.9567 N   0  0  0  0  0  0  0  0  0  0  0  0
    1.2636    3.3791   -2.9045 C   0  0  0  0  0  0  0  0  0  0  0  0
   -1.1547    2.2557    3.8557 N   0  0  0  0  0  0  0  0  0  0  0  0
    1.2162    4.3505   -4.0216 C   0  0  0  0  0  0  0  0  0  0  0  0
    0.4996    4.0622   -5.1322 C   0  0  0  0  0  0  0  0  0  0  0  0
   -0.2061    2.8046   -5.2128 C   0  0  0  0  0  0  0  0  0  0  0  0
   -0.1571    1.9379   -4.1981 C   0  0  0  0  0  0  0  0  0  0  0  0
    1.1719   -0.4009   -2.0755 C   0  0  0  0  0  0  0  0  0  0  0  0
    0.8144   -1.4570   -1.3157 C   0  0  0  0  0  0  0  0  0  0  0  0
    1.3066   -2.8338   -1.5985 C   0  0  0  0  0  0  0  0  0  0  0  0
    2.1396   -3.0605   -2.6492 C   0  0  0  0  0  0  0  0  0  0  0  0
    2.5374   -1.9158   -3.4903 C   0  0  0  0  0  0  0  0  0  0  0  0
    2.0866   -0.6826   -3.2205 C   0  0  0  0  0  0  0  0  0  0  0  0
    0.0993    1.4754   -0.2218 C   0  0  0  0  0  0  0  0  0  0  0  0
    0.2647    0.4778    0.8913 C   0  0  0  0  0  0  0  0  0  0  0  0
   -0.1259    0.7218    2.1451 C   0  0  0  0  0  0  0  0  0  0  0  0
   -0.7493    2.0006    2.5052 C   0  0  0  0  0  0  0  0  0  0  0  0
   -0.9268    2.9289    1.5422 C   0  0  0  0  0  0  0  0  0  0  0  0
   -0.4902    2.6664    0.1296 C   0  0  0  0  0  0  0  0  0  0  0  0
    3.6381   -4.5930   -3.9520 C   0  0  0  0  0  0  0  0  0  0  0  0
    2.1265   -5.5117   -2.2610 C   0  0  0  0  0  0  0  0  0  0  0  0
   -0.8162    1.3330    4.9010 C   0  0  0  0  0  0  0  0  0  0  0  0
   -1.9043    3.4419    4.2028 C   0  0  0  0  0  0  0  0  0  0  0  0
  1  2  1  0  0  0  0
  1 10  1  0  0  0  0
  1 16  1  0  0  0  0
  2  4  2  0  0  0  0
  2  9  1  0  0  0  0
  4  6  1  0  0  0  0
  6  7  2  0  0  0  0
  7  8  1  0  0  0  0
  8  9  2  0  0  0  0
 10 11  2  0  0  0  0
 10 15  1  0  0  0  0
 11 12  1  0  0  0  0
 12 13  2  0  0  0  0
 13  3  1  0  0  0  0
 13 14  1  0  0  0  0
 14 15  2  0  0  0  0
 16 17  2  0  0  0  0
 16 21  1  0  0  0  0
 17 18  1  0  0  0  0
 18 19  2  0  0  0  0
 19  5  1  0  0  0  0
 19 20  1  0  0  0  0
 20 21  2  0  0  0  0
 22  3  1  0  0  0  0
 23  3  1  0  0  0  0
 24  5  1  0  0  0  0
 25  5  1  0  0  0  0
M  END
>  <CHROM.1>
-121.58847945,-157.23567665,-173.78301150,-171.99928587,7.34564872,0.66279586
0.43927382,-1.13501081,3.01287106,-1.18910719,2.27069323

>  <Name>
1q8n_lig

>  <RI>
0

>  <Rbt.Current_Directory>
/home/itssahil/PROJECTS/Mol_Feturizer/New_Systems/rnas/1q8n

>  <Rbt.Executable>
rbdock ($Id: //depot/dev/client3/rdock/2013.1/src/exe/rbdock.cxx#4 $)

>  <Rbt.Library>
libRbt.so (2013.1, Build901 2013/11/27)

>  <Rbt.Parameter_File>
/export/apps/rDock/src/rDock_2013.1_src/data/scripts/dock_solv.prm

>  <Rbt.Receptor>
prm/pocket_docking_3.prm

>  <SCORE>
-54.0744

>  <SCORE.INTER>
-54.5001

>  <SCORE.INTER.CONST>
1

>  <SCORE.INTER.POLAR>
0

>  <SCORE.INTER.ROT>
5

>  <SCORE.INTER.SOLV>
10.2352

>  <SCORE.INTER.VDW>
-46.6785

>  <SCORE.INTER.norm>
-2.18001

>  <SCORE.INTRA>
0.425692

>  <SCORE.INTRA.DIHEDRAL>
0.455752

>  <SCORE.INTRA.DIHEDRAL.0>
2.1627

>  <SCORE.INTRA.POLAR>
0

>  <SCORE.INTRA.POLAR.0>
0

>  <SCORE.INTRA.REPUL>
0

>  <SCORE.INTRA.REPUL.0>
0

>  <SCORE.INTRA.SOLV>
0.0199272

>  <SCORE.INTRA.SOLV.lig_0>
-5.95779

>  <SCORE.INTRA.VDW>
0.187853

>  <SCORE.INTRA.VDW.0>
3.81702

>  <SCORE.INTRA.norm>
0.0170277

>  <SCORE.RESTR>
0

>  <SCORE.RESTR.CAVITY>
0

>  <SCORE.RESTR.norm>
0

>  <SCORE.SYSTEM>
0

>  <SCORE.SYSTEM.CONST>
0

>  <SCORE.SYSTEM.DIHEDRAL>
0

>  <SCORE.SYSTEM.SOLV>
0

>  <SCORE.SYSTEM.norm>
0

>  <SCORE.heavy>
25

>  <SCORE.norm>
-2.16298

>  <RMSD>
0.618

$$$$
1q8n_lig
 OpenBabel11021811403D
libRbt.so/2013.1/901 2013/11/27
 25 27  0  0  0  0  0  0  0  0999 V2000
    0.5879    0.8671   -1.7642 C   0  0  0  0  0  0  0  0  0  0  0  0
    0.5376    2.0032   -2.9356 C   0  0  0  0  0  0  0  0  0  0  0  0
   -1.1909    2.3569    3.7165 N   0  0  0  0  0  0  0  0  0  0  0  0
   -0.1129    1.8358   -4.1119 C   0  0  0  0  0  0  0  0  0  0  0  0
    2.4033   -4.7759   -2.6438 N   0  0  0  0  0  0  0  0  0  0  0  0
   -0.1291    2.8906   -5.1516 C   0  0  0  0  0  0  0  0  0  0  0  0
    0.5178    4.0584   -4.9334 C   0  0  0  0  0  0  0  0  0  0  0  0
    1.2121    4.2603   -3.6832 C   0  0  0  0  0  0  0  0  0  0  0  0
    1.2210    3.3010   -2.7544 C   0  0  0  0  0  0  0  0  0  0  0  0
    0.0997    1.2805   -0.2638 C   0  0  0  0  0  0  0  0  0  0  0  0
   -0.5316    2.4500   -0.0312 C   0  0  0  0  0  0  0  0  0  0  0  0
   -0.9842    2.8438    1.3319 C   0  0  0  0  0  0  0  0  0  0  0  0
   -0.7695    2.0167    2.3898 C   0  0  0  0  0  0  0  0  0  0  0  0
   -0.0823    0.7335    2.1505 C   0  0  0  0  0  0  0  0  0  0  0  0
    0.3202    0.3955    0.9174 C   0  0  0  0  0  0  0  0  0  0  0  0
    1.1187   -0.6743   -2.0660 C   0  0  0  0  0  0  0  0  0  0  0  0
    1.0111   -1.7249   -0.9954 C   0  0  0  0  0  0  0  0  0  0  0  0
    1.4110   -2.9864   -1.1773 C   0  0  0  0  0  0  0  0  0  0  0  0
    1.9876   -3.4174   -2.4562 C   0  0  0  0  0  0  0  0  0  0  0  0
    2.1123   -2.5121   -3.4488 C   0  0  0  0  0  0  0  0  0  0  0  0
    1.6649   -1.0916   -3.2563 C   0  0  0  0  0  0  0  0  0  0  0  0
   -1.9269    3.5509    4.0016 C   0  0  0  0  0  0  0  0  0  0  0  0
   -0.8809    1.4928    4.8131 C   0  0  0  0  0  0  0  0  0  0  0  0
    3.3709   -5.1058   -3.6504 C   0  0  0  0  0  0  0  0  0  0  0  0
    1.8696   -5.8432   -1.8280 C   0  0  0  0  0  0  0  0  0  0  0  0
  1  2  1  0  0  0  0
  1 10  1  0  0  0  0
  1 16  1  0  0  0  0
  2  4  2  0  0  0  0
  2  9  1  0  0  0  0
  4  6  1  0  0  0  0
  6  7  2  0  0  0  0
  7  8  1  0  0  0  0
  8  9  2  0  0  0  0
 10 11  2  0  0  0  0
 10 15  1  0  0  0  0
 11 12  1  0  0  0  0
 12 13  2  0  0  0  0
 13  3  1  0  0  0  0
 13 14  1  0  0  0  0
 14 15  2  0  0  0  0
 16 17  2  0  0  0  0
 16 21  1  0  0  0  0
 17 18  1  0  0  0  0
 18 19  2  0  0  0  0
 19  5  1  0  0  0  0
 19 20  1  0  0  0  0
 20 21  2  0  0  0  0
 22  3  1  0  0  0  0
 23  3  1  0  0  0  0
 24  5  1  0  0  0  0
 25  5  1  0  0  0  0
M  END
>  <CHROM.1>
-125.33816450,10.67326380,-173.54833554,3.48238038,-157.61108966,0.59390559
0.27630765,-1.05655976,-3.09943868,-1.21296228,2.30303478

>  <Name>
1q8n_lig

>  <RI>
0

>  <Rbt.Current_Directory>
/home/itssahil/PROJECTS/Mol_Feturizer/New_Systems/rnas/1q8n

>  <Rbt.Executable>
rbdock ($Id: //depot/dev/client3/rdock/2013.1/src/exe/rbdock.cxx#4 $)

>  <Rbt.Library>
libRbt.so (2013.1, Build901 2013/11/27)

>  <Rbt.Parameter_File>
/export/apps/rDock/src/rDock_2013.1_src/data/scripts/dock_solv.prm

>  <Rbt.Receptor>
prm/pocket_docking_4.prm

>  <SCORE>
-52.0498

>  <SCORE.INTER>
-52.9336

>  <SCORE.INTER.CONST>
1

>  <SCORE.INTER.POLAR>
0

>  <SCORE.INTER.ROT>
5

>  <SCORE.INTER.SOLV>
10.4703

>  <SCORE.INTER.VDW>
-45.7125

>  <SCORE.INTER.norm>
-2.11734

>  <SCORE.INTRA>
0.883735

>  <SCORE.INTRA.DIHEDRAL>
1.90035

>  <SCORE.INTRA.DIHEDRAL.0>
2.1627

>  <SCORE.INTRA.POLAR>
0

>  <SCORE.INTRA.POLAR.0>
0

>  <SCORE.INTRA.REPUL>
0

>  <SCORE.INTRA.REPUL.0>
0

>  <SCORE.INTRA.SOLV>
0.0334452

>  <SCORE.INTRA.SOLV.lig_0>
-5.95779

>  <SCORE.INTRA.VDW>
-0.0831632

>  <SCORE.INTRA.VDW.0>
3.81702

>  <SCORE.INTRA.norm>
0.0353494

>  <SCORE.RESTR>
0

>  <SCORE.RESTR.CAVITY>
0

>  <SCORE.RESTR.norm>
0

>  <SCORE.SYSTEM>
0

>  <SCORE.SYSTEM.CONST>
0

>  <SCORE.SYSTEM.DIHEDRAL>
0

>  <SCORE.SYSTEM.SOLV>
0

>  <SCORE.SYSTEM.norm>
0

>  <SCORE.heavy>
25

>  <SCORE.norm>
-2.08199

>  <RMSD>
0.618

$$$$
1q8n_lig
 OpenBabel11021811413D
libRbt.so/2013.1/901 2013/11/27
 25 27  0  0  0  0  0  0  0  0999 V2000
    0.5658    1.0307   -1.6877 C   0  0  0  0  0  0  0  0  0  0  0  0
    0.5628    2.1167   -2.9067 C   0  0  0  0  0  0  0  0  0  0  0  0
    2.5327   -4.4684   -2.8333 N   0  0  0  0  0  0  0  0  0  0  0  0
    1.1995    3.3107   -2.8456 C   0  0  0  0  0  0  0  0  0  0  0  0
   -1.1948    2.2800    3.9027 N   0  0  0  0  0  0  0  0  0  0  0  0
    1.1670    4.2709   -3.9729 C   0  0  0  0  0  0  0  0  0  0  0  0
    0.4882    3.9594   -5.1008 C   0  0  0  0  0  0  0  0  0  0  0  0
   -0.1922    2.6885   -5.1895 C   0  0  0  0  0  0  0  0  0  0  0  0
   -0.1571    1.8321   -4.1656 C   0  0  0  0  0  0  0  0  0  0  0  0
    1.1039   -0.4777   -1.9965 C   0  0  0  0  0  0  0  0  0  0  0  0
    0.8648   -1.4942   -1.1421 C   0  0  0  0  0  0  0  0  0  0  0  0
    1.3484   -2.8774   -1.4077 C   0  0  0  0  0  0  0  0  0  0  0  0
    2.0515   -3.1511   -2.5391 C   0  0  0  0  0  0  0  0  0  0  0  0
    2.3188   -2.0502   -3.4839 C   0  0  0  0  0  0  0  0  0  0  0  0
    1.8778   -0.8105   -3.2284 C   0  0  0  0  0  0  0  0  0  0  0  0
    0.0391    1.4257   -0.1660 C   0  0  0  0  0  0  0  0  0  0  0  0
    0.3775    0.5342    0.9969 C   0  0  0  0  0  0  0  0  0  0  0  0
   -0.0075    0.8003    2.2480 C   0  0  0  0  0  0  0  0  0  0  0  0
   -0.7965    1.9990    2.5552 C   0  0  0  0  0  0  0  0  0  0  0  0
   -1.1325    2.8297    1.5466 C   0  0  0  0  0  0  0  0  0  0  0  0
   -0.7040    2.5418    0.1364 C   0  0  0  0  0  0  0  0  0  0  0  0
    3.5001   -4.7170   -3.8585 C   0  0  0  0  0  0  0  0  0  0  0  0
    2.0490   -5.5925   -2.0932 C   0  0  0  0  0  0  0  0  0  0  0  0
   -0.8501    1.3782    4.9639 C   0  0  0  0  0  0  0  0  0  0  0  0
   -1.9436    3.4722    4.2305 C   0  0  0  0  0  0  0  0  0  0  0  0
  1  2  1  0  0  0  0
  1 10  1  0  0  0  0
  1 16  1  0  0  0  0
  2  4  2  0  0  0  0
  2  9  1  0  0  0  0
  4  6  1  0  0  0  0
  6  7  2  0  0  0  0
  7  8  1  0  0  0  0
  8  9  2  0  0  0  0
 10 11  2  0  0  0  0
 10 15  1  0  0  0  0
 11 12  1  0  0  0  0
 12 13  2  0  0  0  0
 13  3  1  0  0  0  0
 13 14  1  0  0  0  0
 14 15  2  0  0  0  0
 16 17  2  0  0  0  0
 16 21  1  0  0  0  0
 17 18  1  0  0  0  0
 18 19  2  0  0  0  0
 19  5  1  0  0  0  0
 19 20  1  0  0  0  0
 20 21  2  0  0  0  0
 22  3  1  0  0  0  0
 23  3  1  0  0  0  0
 24  5  1  0  0  0  0
 25  5  1  0  0  0  0
M  END
>  <CHROM.1>
-123.65702304,-165.17191045,-164.36837588,-166.55379019,-1.26813577,0.60540359
0.38101924,-1.06612962,0.13419673,1.19567314,-0.88835933

>  <Name>
1q8n_lig

>  <RI>
0

>  <Rbt.Current_Directory>
/home/itssahil/PROJECTS/Mol_Feturizer/New_Systems/rnas/1q8n

>  <Rbt.Executable>
rbdock ($Id: //depot/dev/client3/rdock/2013.1/src/exe/rbdock.cxx#4 $)

>  <Rbt.Library>
libRbt.so (2013.1, Build901 2013/11/27)

>  <Rbt.Parameter_File>
/export/apps/rDock/src/rDock_2013.1_src/data/scripts/dock_solv.prm

>  <Rbt.Receptor>
prm/pocket_docking_6.prm

>  <SCORE>
-54.0511

>  <SCORE.INTER>
-54.5493

>  <SCORE.INTER.CONST>
1

>  <SCORE.INTER.POLAR>
0

>  <SCORE.INTER.ROT>
5

>  <SCORE.INTER.SOLV>
10.2203

>  <SCORE.INTER.VDW>
-46.7063

>  <SCORE.INTER.norm>
-2.18197

>  <SCORE.INTRA>
0.49828

>  <SCORE.INTRA.DIHEDRAL>
0.698097

>  <SCORE.INTRA.DIHEDRAL.0>
2.1627

>  <SCORE.INTRA.POLAR>
0

>  <SCORE.INTRA.POLAR.0>
0

>  <SCORE.INTRA.REPUL>
0

>  <SCORE.INTRA.REPUL.0>
0

>  <SCORE.INTRA.SOLV>
0.0245034

>  <SCORE.INTRA.SOLV.lig_0>
-5.95779

>  <SCORE.INTRA.VDW>
0.13698

>  <SCORE.INTRA.VDW.0>
3.81702

>  <SCORE.INTRA.norm>
0.0199312

>  <SCORE.RESTR>
0

>  <SCORE.RESTR.CAVITY>
0

>  <SCORE.RESTR.norm>
0

>  <SCORE.SYSTEM>
0

>  <SCORE.SYSTEM.CONST>
0

>  <SCORE.SYSTEM.DIHEDRAL>
0

>  <SCORE.SYSTEM.SOLV>
0

>  <SCORE.SYSTEM.norm>
0

>  <SCORE.heavy>
25

>  <SCORE.norm>
-2.16204

>  <RMSD>
0.619

$$$$
1q8n_lig
 OpenBabel11021811403D
libRbt.so/2013.1/901 2013/11/27
 25 27  0  0  0  0  0  0  0  0999 V2000
    0.5686    1.0387   -1.6908 C   0  0  0  0  0  0  0  0  0  0  0  0
    0.5629    2.1219   -2.9123 C   0  0  0  0  0  0  0  0  0  0  0  0
    2.5291   -4.4643   -2.8289 N   0  0  0  0  0  0  0  0  0  0  0  0
    1.1961    3.3179   -2.8536 C   0  0  0  0  0  0  0  0  0  0  0  0
   -1.1768    2.3018    3.9013 N   0  0  0  0  0  0  0  0  0  0  0  0
    1.1613    4.2754   -3.9832 C   0  0  0  0  0  0  0  0  0  0  0  0
    0.4840    3.9593   -5.1107 C   0  0  0  0  0  0  0  0  0  0  0  0
   -0.1926    2.6862   -5.1969 C   0  0  0  0  0  0  0  0  0  0  0  0
   -0.1554    1.8322   -4.1709 C   0  0  0  0  0  0  0  0  0  0  0  0
    1.1051   -0.4707   -1.9975 C   0  0  0  0  0  0  0  0  0  0  0  0
    0.8951   -1.4783   -1.1251 C   0  0  0  0  0  0  0  0  0  0  0  0
    1.3777   -2.8624   -1.3886 C   0  0  0  0  0  0  0  0  0  0  0  0
    2.0499   -3.1458   -2.5363 C   0  0  0  0  0  0  0  0  0  0  0  0
    2.2851   -2.0547   -3.5008 C   0  0  0  0  0  0  0  0  0  0  0  0
    1.8454   -0.8142   -3.2469 C   0  0  0  0  0  0  0  0  0  0  0  0
    0.0461    1.4375   -0.1687 C   0  0  0  0  0  0  0  0  0  0  0  0
    0.3865    0.5482    0.9953 C   0  0  0  0  0  0  0  0  0  0  0  0
    0.0049    0.8173    2.2468 C   0  0  0  0  0  0  0  0  0  0  0  0
   -0.7821    2.0175    2.5534 C   0  0  0  0  0  0  0  0  0  0  0  0
   -1.1198    2.8464    1.5438 C   0  0  0  0  0  0  0  0  0  0  0  0
   -0.6951    2.5550    0.1332 C   0  0  0  0  0  0  0  0  0  0  0  0
    2.0527   -5.6217   -2.1347 C   0  0  0  0  0  0  0  0  0  0  0  0
    3.5161   -4.6615   -3.8449 C   0  0  0  0  0  0  0  0  0  0  0  0
   -0.8295    1.4023    4.9637 C   0  0  0  0  0  0  0  0  0  0  0  0
   -1.9242    3.4951    4.2283 C   0  0  0  0  0  0  0  0  0  0  0  0
  1  2  1  0  0  0  0
  1 10  1  0  0  0  0
  1 16  1  0  0  0  0
  2  4  2  0  0  0  0
  2  9  1  0  0  0  0
  4  6  1  0  0  0  0
  6  7  2  0  0  0  0
  7  8  1  0  0  0  0
  8  9  2  0  0  0  0
 10 11  2  0  0  0  0
 10 15  1  0  0  0  0
 11 12  1  0  0  0  0
 12 13  2  0  0  0  0
 13  3  1  0  0  0  0
 13 14  1  0  0  0  0
 14 15  2  0  0  0  0
 16 17  2  0  0  0  0
 16 21  1  0  0  0  0
 17 18  1  0  0  0  0
 18 19  2  0  0  0  0
 19  5  1  0  0  0  0
 19 20  1  0  0  0  0
 20 21  2  0  0  0  0
 22  3  1  0  0  0  0
 23  3  1  0  0  0  0
 24  5  1  0  0  0  0
 25  5  1  0  0  0  0
M  END
>  <CHROM.1>
-123.92724853,-166.76134504,-164.39821314,16.52179253,-1.22886483,0.61056790
0.39114810,-1.06974363,0.14143639,1.19761725,-0.89678007

>  <Name>
1q8n_lig

>  <RI>
0

>  <Rbt.Current_Directory>
/home/itssahil/PROJECTS/Mol_Feturizer/New_Systems/rnas/1q8n

>  <Rbt.Executable>
rbdock ($Id: //depot/dev/client3/rdock/2013.1/src/exe/rbdock.cxx#4 $)

>  <Rbt.Library>
libRbt.so (2013.1, Build901 2013/11/27)

>  <Rbt.Parameter_File>
/export/apps/rDock/src/rDock_2013.1_src/data/scripts/dock_solv.prm

>  <Rbt.Receptor>
prm/blind_docking_20.prm

>  <SCORE>
-54.0771

>  <SCORE.INTER>
-54.6548

>  <SCORE.INTER.CONST>
1

>  <SCORE.INTER.POLAR>
0

>  <SCORE.INTER.ROT>
5

>  <SCORE.INTER.SOLV>
10.2574

>  <SCORE.INTER.VDW>
-46.789

>  <SCORE.INTER.norm>
-2.18619

>  <SCORE.INTRA>
0.577777

>  <SCORE.INTRA.DIHEDRAL>
1.04078

>  <SCORE.INTRA.DIHEDRAL.0>
2.1627

>  <SCORE.INTRA.POLAR>
0

>  <SCORE.INTRA.POLAR.0>
0

>  <SCORE.INTRA.REPUL>
0

>  <SCORE.INTRA.REPUL.0>
0

>  <SCORE.INTRA.SOLV>
0.0258449

>  <SCORE.INTRA.SOLV.lig_0>
-5.95779

>  <SCORE.INTRA.VDW>
0.0444624

>  <SCORE.INTRA.VDW.0>
3.81702

>  <SCORE.INTRA.norm>
0.0231111

>  <SCORE.RESTR>
0

>  <SCORE.RESTR.CAVITY>
0

>  <SCORE.RESTR.norm>
0

>  <SCORE.SYSTEM>
0

>  <SCORE.SYSTEM.CONST>
0

>  <SCORE.SYSTEM.DIHEDRAL>
0

>  <SCORE.SYSTEM.SOLV>
0

>  <SCORE.SYSTEM.norm>
0

>  <SCORE.heavy>
25

>  <SCORE.norm>
-2.16308

>  <RMSD>
0.620

$$$$
1q8n_lig
 OpenBabel11021811403D
libRbt.so/2013.1/901 2013/11/27
 25 27  0  0  0  0  0  0  0  0999 V2000
    0.6198    1.0986   -1.7558 C   0  0  0  0  0  0  0  0  0  0  0  0
    0.6031    2.1970   -2.9635 C   0  0  0  0  0  0  0  0  0  0  0  0
    2.6071   -4.3868   -2.9319 N   0  0  0  0  0  0  0  0  0  0  0  0
    1.2718    3.3740   -2.9128 C   0  0  0  0  0  0  0  0  0  0  0  0
   -1.1537    2.2523    3.8510 N   0  0  0  0  0  0  0  0  0  0  0  0
    1.2256    4.3464   -4.0291 C   0  0  0  0  0  0  0  0  0  0  0  0
    0.5011    4.0639   -5.1361 C   0  0  0  0  0  0  0  0  0  0  0  0
   -0.2141    2.8115   -5.2136 C   0  0  0  0  0  0  0  0  0  0  0  0
   -0.1661    1.9438   -4.1998 C   0  0  0  0  0  0  0  0  0  0  0  0
    1.1655   -0.4032   -2.0832 C   0  0  0  0  0  0  0  0  0  0  0  0
    1.8926   -0.6571   -3.1910 C   0  0  0  0  0  0  0  0  0  0  0  0
    2.3989   -2.0218   -3.5058 C   0  0  0  0  0  0  0  0  0  0  0  0
    2.1368   -3.0593   -2.6668 C   0  0  0  0  0  0  0  0  0  0  0  0
    1.3448   -2.7966   -1.4503 C   0  0  0  0  0  0  0  0  0  0  0  0
    0.8952   -1.5625   -1.1831 C   0  0  0  0  0  0  0  0  0  0  0  0
    0.0995    1.4746   -0.2272 C   0  0  0  0  0  0  0  0  0  0  0  0
    0.2345    0.4639    0.8781 C   0  0  0  0  0  0  0  0  0  0  0  0
   -0.1558    0.7072    2.1322 C   0  0  0  0  0  0  0  0  0  0  0  0
   -0.7485    1.9984    2.5002 C   0  0  0  0  0  0  0  0  0  0  0  0
   -0.8981    2.9388    1.5443 C   0  0  0  0  0  0  0  0  0  0  0  0
   -0.4616    2.6771    0.1315 C   0  0  0  0  0  0  0  0  0  0  0  0
    2.1241   -5.5261   -2.2127 C   0  0  0  0  0  0  0  0  0  0  0  0
    3.5916   -4.6119   -3.9444 C   0  0  0  0  0  0  0  0  0  0  0  0
   -1.9103    3.4282    4.1723 C   0  0  0  0  0  0  0  0  0  0  0  0
   -0.8206    1.3369    4.9189 C   0  0  0  0  0  0  0  0  0  0  0  0
  1  2  1  0  0  0  0
  1 10  1  0  0  0  0
  1 16  1  0  0  0  0
  2  4  2  0  0  0  0
  2  9  1  0  0  0  0
  4  6  1  0  0  0  0
  6  7  2  0  0  0  0
  7  8  1  0  0  0  0
  8  9  2  0  0  0  0
 10 11  2  0  0  0  0
 10 15  1  0  0  0  0
 11 12  1  0  0  0  0
 12 13  2  0  0  0  0
 13  3  1  0  0  0  0
 13 14  1  0  0  0  0
 14 15  2  0  0  0  0
 16 17  2  0  0  0  0
 16 21  1  0  0  0  0
 17 18  1  0  0  0  0
 18 19  2  0  0  0  0
 19  5  1  0  0  0  0
 19 20  1  0  0  0  0
 20 21  2  0  0  0  0
 22  3  1  0  0  0  0
 23  3  1  0  0  0  0
 24  5  1  0  0  0  0
 25  5  1  0  0  0  0
M  END
>  <CHROM.1>
-121.22474058,16.66098957,-175.18944222,-167.29397532,-170.69557579,0.65016289
0.43028204,-1.12406747,0.12357153,1.19277060,-0.87132994

>  <Name>
1q8n_lig

>  <RI>
0

>  <Rbt.Current_Directory>
/home/itssahil/PROJECTS/Mol_Feturizer/New_Systems/rnas/1q8n

>  <Rbt.Executable>
rbdock ($Id: //depot/dev/client3/rdock/2013.1/src/exe/rbdock.cxx#4 $)

>  <Rbt.Library>
libRbt.so (2013.1, Build901 2013/11/27)

>  <Rbt.Parameter_File>
/export/apps/rDock/src/rDock_2013.1_src/data/scripts/dock_solv.prm

>  <Rbt.Receptor>
prm/pocket_docking_4.prm

>  <SCORE>
-54.269

>  <SCORE.INTER>
-54.9037

>  <SCORE.INTER.CONST>
1

>  <SCORE.INTER.POLAR>
0

>  <SCORE.INTER.ROT>
5

>  <SCORE.INTER.SOLV>
10.1777

>  <SCORE.INTER.VDW>
-46.9284

>  <SCORE.INTER.norm>
-2.19615

>  <SCORE.INTRA>
0.634636

>  <SCORE.INTRA.DIHEDRAL>
0.950671

>  <SCORE.INTRA.DIHEDRAL.0>
2.1627

>  <SCORE.INTRA.POLAR>
0

>  <SCORE.INTRA.POLAR.0>
0

>  <SCORE.INTRA.REPUL>
0

>  <SCORE.INTRA.REPUL.0>
0

>  <SCORE.INTRA.SOLV>
0.0259801

>  <SCORE.INTRA.SOLV.lig_0>
-5.95779

>  <SCORE.INTRA.VDW>
0.146311

>  <SCORE.INTRA.VDW.0>
3.81702

>  <SCORE.INTRA.norm>
0.0253855

>  <SCORE.RESTR>
0

>  <SCORE.RESTR.CAVITY>
0

>  <SCORE.RESTR.norm>
0

>  <SCORE.SYSTEM>
0

>  <SCORE.SYSTEM.CONST>
0

>  <SCORE.SYSTEM.DIHEDRAL>
0

>  <SCORE.SYSTEM.SOLV>
0

>  <SCORE.SYSTEM.norm>
0

>  <SCORE.heavy>
25

>  <SCORE.norm>
-2.17076

>  <RMSD>
0.620

$$$$
1q8n_lig
 OpenBabel11021811403D
libRbt.so/2013.1/901 2013/11/27
 25 27  0  0  0  0  0  0  0  0999 V2000
    0.5543    0.8510   -1.6891 C   0  0  0  0  0  0  0  0  0  0  0  0
    0.5152    1.9861   -2.8619 C   0  0  0  0  0  0  0  0  0  0  0  0
   -1.2376    2.3956    3.7721 N   0  0  0  0  0  0  0  0  0  0  0  0
   -0.0857    1.8009   -4.0617 C   0  0  0  0  0  0  0  0  0  0  0  0
    2.5552   -4.6510   -2.9685 N   0  0  0  0  0  0  0  0  0  0  0  0
   -0.0935    2.8557   -5.1016 C   0  0  0  0  0  0  0  0  0  0  0  0
    0.5109    4.0415   -4.8596 C   0  0  0  0  0  0  0  0  0  0  0  0
    1.1518    4.2624   -3.5843 C   0  0  0  0  0  0  0  0  0  0  0  0
    1.1536    3.3029   -2.6556 C   0  0  0  0  0  0  0  0  0  0  0  0
    0.0643    1.2693   -0.1907 C   0  0  0  0  0  0  0  0  0  0  0  0
    0.3559    0.5020    0.8801 C   0  0  0  0  0  0  0  0  0  0  0  0
   -0.0832    0.8683    2.2552 C   0  0  0  0  0  0  0  0  0  0  0  0
   -0.7979    2.0061    2.4650 C   0  0  0  0  0  0  0  0  0  0  0  0
   -1.1225    2.8563    1.3040 C   0  0  0  0  0  0  0  0  0  0  0  0
   -0.7209    2.5107    0.0728 C   0  0  0  0  0  0  0  0  0  0  0  0
    1.0758   -0.6942   -1.9876 C   0  0  0  0  0  0  0  0  0  0  0  0
    1.7467   -1.0172   -3.2942 C   0  0  0  0  0  0  0  0  0  0  0  0
    2.1981   -2.2385   -3.5928 C   0  0  0  0  0  0  0  0  0  0  0  0
    2.0576   -3.3475   -2.6420 C   0  0  0  0  0  0  0  0  0  0  0  0
    1.4571   -3.1128   -1.4567 C   0  0  0  0  0  0  0  0  0  0  0  0
    0.9472   -1.7437   -1.1094 C   0  0  0  0  0  0  0  0  0  0  0  0
   -0.9845    1.5971    4.9326 C   0  0  0  0  0  0  0  0  0  0  0  0
   -1.9552    3.6192    3.9543 C   0  0  0  0  0  0  0  0  0  0  0  0
    2.0223   -5.8143   -2.3195 C   0  0  0  0  0  0  0  0  0  0  0  0
    3.5947   -4.8314   -3.9567 C   0  0  0  0  0  0  0  0  0  0  0  0
  1  2  1  0  0  0  0
  1 10  1  0  0  0  0
  1 16  1  0  0  0  0
  2  4  2  0  0  0  0
  2  9  1  0  0  0  0
  4  6  1  0  0  0  0
  6  7  2  0  0  0  0
  7  8  1  0  0  0  0
  8  9  2  0  0  0  0
 10 11  2  0  0  0  0
 10 15  1  0  0  0  0
 11 12  1  0  0  0  0
 12 13  2  0  0  0  0
 13  3  1  0  0  0  0
 13 14  1  0  0  0  0
 14 15  2  0  0  0  0
 16 17  2  0  0  0  0
 16 21  1  0  0  0  0
 17 18  1  0  0  0  0
 18 19  2  0  0  0  0
 19  5  1  0  0  0  0
 19 20  1  0  0  0  0
 20 21  2  0  0  0  0
 22  3  1  0  0  0  0
 23  3  1  0  0  0  0
 24  5  1  0  0  0  0
 25  5  1  0  0  0  0
M  END
>  <CHROM.1>
-128.16894304,-164.31457208,10.49788827,-1.69119894,-157.10141119,0.59755598
0.32179107,-1.09621702,3.12755704,-1.20106535,2.29610125

>  <Name>
1q8n_lig

>  <RI>
0

>  <Rbt.Current_Directory>
/home/itssahil/PROJECTS/Mol_Feturizer/New_Systems/rnas/1q8n

>  <Rbt.Executable>
rbdock ($Id: //depot/dev/client3/rdock/2013.1/src/exe/rbdock.cxx#4 $)

>  <Rbt.Library>
libRbt.so (2013.1, Build901 2013/11/27)

>  <Rbt.Parameter_File>
/export/apps/rDock/src/rDock_2013.1_src/data/scripts/dock_solv.prm

>  <Rbt.Receptor>
prm/pocket_docking_3.prm

>  <SCORE>
-52.0777

>  <SCORE.INTER>
-52.6788

>  <SCORE.INTER.CONST>
1

>  <SCORE.INTER.POLAR>
0

>  <SCORE.INTER.ROT>
5

>  <SCORE.INTER.SOLV>
10.4621

>  <SCORE.INTER.VDW>
-45.5399

>  <SCORE.INTER.norm>
-2.10715

>  <SCORE.INTRA>
0.601036

>  <SCORE.INTRA.DIHEDRAL>
1.94492

>  <SCORE.INTRA.DIHEDRAL.0>
2.1627

>  <SCORE.INTRA.POLAR>
0

>  <SCORE.INTRA.POLAR.0>
0

>  <SCORE.INTRA.REPUL>
0

>  <SCORE.INTRA.REPUL.0>
0

>  <SCORE.INTRA.SOLV>
0.0265344

>  <SCORE.INTRA.SOLV.lig_0>
-5.95779

>  <SCORE.INTRA.VDW>
-0.384693

>  <SCORE.INTRA.VDW.0>
3.81702

>  <SCORE.INTRA.norm>
0.0240414

>  <SCORE.RESTR>
0

>  <SCORE.RESTR.CAVITY>
0

>  <SCORE.RESTR.norm>
0

>  <SCORE.SYSTEM>
0

>  <SCORE.SYSTEM.CONST>
0

>  <SCORE.SYSTEM.DIHEDRAL>
0

>  <SCORE.SYSTEM.SOLV>
0

>  <SCORE.SYSTEM.norm>
0

>  <SCORE.heavy>
25

>  <SCORE.norm>
-2.08311

>  <RMSD>
0.622

$$$$
1q8n_lig
 OpenBabel11021811403D
libRbt.so/2013.1/901 2013/11/27
 25 27  0  0  0  0  0  0  0  0999 V2000
    0.5158    0.9877   -1.7328 C   0  0  0  0  0  0  0  0  0  0  0  0
    0.4712    2.0637   -2.9598 C   0  0  0  0  0  0  0  0  0  0  0  0
    2.5645   -4.4831   -2.8708 N   0  0  0  0  0  0  0  0  0  0  0  0
   -0.2046    1.8528   -4.1147 C   0  0  0  0  0  0  0  0  0  0  0  0
   -1.1753    2.2436    3.8776 N   0  0  0  0  0  0  0  0  0  0  0  0
   -0.2148    2.8535   -5.2067 C   0  0  0  0  0  0  0  0  0  0  0  0
    0.4636    4.0146   -5.0597 C   0  0  0  0  0  0  0  0  0  0  0  0
    1.1853    4.2626   -3.8335 C   0  0  0  0  0  0  0  0  0  0  0  0
    1.1884    3.3517   -2.8570 C   0  0  0  0  0  0  0  0  0  0  0  0
    1.0763   -0.5129   -2.0395 C   0  0  0  0  0  0  0  0  0  0  0  0
    0.8475   -1.5329   -1.1864 C   0  0  0  0  0  0  0  0  0  0  0  0
    1.3516   -2.9092   -1.4503 C   0  0  0  0  0  0  0  0  0  0  0  0
    2.0636   -3.1726   -2.5785 C   0  0  0  0  0  0  0  0  0  0  0  0
    2.3198   -2.0678   -3.5218 C   0  0  0  0  0  0  0  0  0  0  0  0
    1.8604   -0.8345   -3.2679 C   0  0  0  0  0  0  0  0  0  0  0  0
    0.0088    1.3851   -0.2051 C   0  0  0  0  0  0  0  0  0  0  0  0
    0.3470    0.4862    0.9521 C   0  0  0  0  0  0  0  0  0  0  0  0
   -0.0226    0.7536    2.2076 C   0  0  0  0  0  0  0  0  0  0  0  0
   -0.7934    1.9613    2.5256 C   0  0  0  0  0  0  0  0  0  0  0  0
   -1.1285    2.7990    1.5224 C   0  0  0  0  0  0  0  0  0  0  0  0
   -0.7173    2.5096    0.1075 C   0  0  0  0  0  0  0  0  0  0  0  0
    3.5679   -4.7130   -3.8653 C   0  0  0  0  0  0  0  0  0  0  0  0
    2.0645   -5.6189   -2.1601 C   0  0  0  0  0  0  0  0  0  0  0  0
   -1.9305    3.4237    4.1865 C   0  0  0  0  0  0  0  0  0  0  0  0
   -0.8195    1.3531    4.9592 C   0  0  0  0  0  0  0  0  0  0  0  0
  1  2  1  0  0  0  0
  1 10  1  0  0  0  0
  1 16  1  0  0  0  0
  2  4  2  0  0  0  0
  2  9  1  0  0  0  0
  4  6  1  0  0  0  0
  6  7  2  0  0  0  0
  7  8  1  0  0  0  0
  8  9  2  0  0  0  0
 10 11  2  0  0  0  0
 10 15  1  0  0  0  0
 11 12  1  0  0  0  0
 12 13  2  0  0  0  0
 13  3  1  0  0  0  0
 13 14  1  0  0  0  0
 14 15  2  0  0  0  0
 16 17  2  0  0  0  0
 16 21  1  0  0  0  0
 17 18  1  0  0  0  0
 18 19  2  0  0  0  0
 19  5  1  0  0  0  0
 19 20  1  0  0  0  0
 20 21  2  0  0  0  0
 22  3  1  0  0  0  0
 23  3  1  0  0  0  0
 24  5  1  0  0  0  0
 25  5  1  0  0  0  0
M  END
>  <CHROM.1>
57.54484170,-163.79081525,-166.30660676,-164.71911194,-179.90426638,0.59970061
0.36611394,-1.08748682,0.12566240,1.19359266,-0.89249182

>  <Name>
1q8n_lig

>  <RI>
0

>  <Rbt.Current_Directory>
/home/itssahil/PROJECTS/Mol_Feturizer/New_Systems/rnas/1q8n

>  <Rbt.Executable>
rbdock ($Id: //depot/dev/client3/rdock/2013.1/src/exe/rbdock.cxx#4 $)

>  <Rbt.Library>
libRbt.so (2013.1, Build901 2013/11/27)

>  <Rbt.Parameter_File>
/export/apps/rDock/src/rDock_2013.1_src/data/scripts/dock_solv.prm

>  <Rbt.Receptor>
prm/pocket_docking_4.prm

>  <SCORE>
-53.4129

>  <SCORE.INTER>
-54.0105

>  <SCORE.INTER.CONST>
1

>  <SCORE.INTER.POLAR>
0

>  <SCORE.INTER.ROT>
5

>  <SCORE.INTER.SOLV>
10.2876

>  <SCORE.INTER.VDW>
-46.3695

>  <SCORE.INTER.norm>
-2.16042

>  <SCORE.INTRA>
0.597579

>  <SCORE.INTRA.DIHEDRAL>
0.888699

>  <SCORE.INTRA.DIHEDRAL.0>
2.1627

>  <SCORE.INTRA.POLAR>
0

>  <SCORE.INTRA.POLAR.0>
0

>  <SCORE.INTRA.REPUL>
0

>  <SCORE.INTRA.REPUL.0>
0

>  <SCORE.INTRA.SOLV>
0.0223163

>  <SCORE.INTRA.SOLV.lig_0>
-5.95779

>  <SCORE.INTRA.VDW>
0.142071

>  <SCORE.INTRA.VDW.0>
3.81702

>  <SCORE.INTRA.norm>
0.0239031

>  <SCORE.RESTR>
0

>  <SCORE.RESTR.CAVITY>
0

>  <SCORE.RESTR.norm>
0

>  <SCORE.SYSTEM>
0

>  <SCORE.SYSTEM.CONST>
0

>  <SCORE.SYSTEM.DIHEDRAL>
0

>  <SCORE.SYSTEM.SOLV>
0

>  <SCORE.SYSTEM.norm>
0

>  <SCORE.heavy>
25

>  <SCORE.norm>
-2.13652

>  <RMSD>
0.622

$$$$
1q8n_lig
 OpenBabel11021811403D
libRbt.so/2013.1/901 2013/11/27
 25 27  0  0  0  0  0  0  0  0999 V2000
    0.5188    0.9944   -1.7303 C   0  0  0  0  0  0  0  0  0  0  0  0
    0.4780    2.0725   -2.9557 C   0  0  0  0  0  0  0  0  0  0  0  0
    2.5442   -4.4830   -2.8782 N   0  0  0  0  0  0  0  0  0  0  0  0
   -0.1976    1.8654   -4.1113 C   0  0  0  0  0  0  0  0  0  0  0  0
   -1.1608    2.2514    3.8832 N   0  0  0  0  0  0  0  0  0  0  0  0
   -0.2042    2.8680   -5.2016 C   0  0  0  0  0  0  0  0  0  0  0  0
    0.4774    4.0269   -5.0523 C   0  0  0  0  0  0  0  0  0  0  0  0
    1.1990    4.2708   -3.8253 C   0  0  0  0  0  0  0  0  0  0  0  0
    1.1989    3.3583   -2.8503 C   0  0  0  0  0  0  0  0  0  0  0  0
    1.0730   -0.5081   -2.0398 C   0  0  0  0  0  0  0  0  0  0  0  0
    0.8505   -1.5259   -1.1825 C   0  0  0  0  0  0  0  0  0  0  0  0
    1.3489   -2.9038   -1.4487 C   0  0  0  0  0  0  0  0  0  0  0  0
    2.0491   -3.1709   -2.5834 C   0  0  0  0  0  0  0  0  0  0  0  0
    2.2983   -2.0685   -3.5314 C   0  0  0  0  0  0  0  0  0  0  0  0
    1.8441   -0.8337   -3.2753 C   0  0  0  0  0  0  0  0  0  0  0  0
    0.0141    1.3914   -0.2018 C   0  0  0  0  0  0  0  0  0  0  0  0
    0.3711    0.5026    0.9576 C   0  0  0  0  0  0  0  0  0  0  0  0
    0.0042    0.7704    2.2138 C   0  0  0  0  0  0  0  0  0  0  0  0
   -0.7820    1.9685    2.5305 C   0  0  0  0  0  0  0  0  0  0  0  0
   -1.1342    2.7968    1.5254 C   0  0  0  0  0  0  0  0  0  0  0  0
   -0.7262    2.5069    0.1096 C   0  0  0  0  0  0  0  0  0  0  0  0
    2.0715   -5.6490   -2.1958 C   0  0  0  0  0  0  0  0  0  0  0  0
    3.5443   -4.6648   -3.8842 C   0  0  0  0  0  0  0  0  0  0  0  0
   -0.8046    1.3487    4.9399 C   0  0  0  0  0  0  0  0  0  0  0  0
   -1.9008    3.4463    4.2208 C   0  0  0  0  0  0  0  0  0  0  0  0
  1  2  1  0  0  0  0
  1 10  1  0  0  0  0
  1 16  1  0  0  0  0
  2  4  2  0  0  0  0
  2  9  1  0  0  0  0
  4  6  1  0  0  0  0
  6  7  2  0  0  0  0
  7  8  1  0  0  0  0
  8  9  2  0  0  0  0
 10 11  2  0  0  0  0
 10 15  1  0  0  0  0
 11 12  1  0  0  0  0
 12 13  2  0  0  0  0
 13  3  1  0  0  0  0
 13 14  1  0  0  0  0
 14 15  2  0  0  0  0
 16 17  2  0  0  0  0
 16 21  1  0  0  0  0
 17 18  1  0  0  0  0
 18 19  2  0  0  0  0
 19  5  1  0  0  0  0
 19 20  1  0  0  0  0
 20 21  2  0  0  0  0
 22  3  1  0  0  0  0
 23  3  1  0  0  0  0
 24  5  1  0  0  0  0
 25  5  1  0  0  0  0
M  END
>  <CHROM.1>
57.45094303,-164.38169530,-165.16694458,15.78729523,-1.57869584,0.60319727
0.37313054,-1.08758218,0.12395150,1.19726683,-0.88922813

>  <Name>
1q8n_lig

>  <RI>
0

>  <Rbt.Current_Directory>
/home/itssahil/PROJECTS/Mol_Feturizer/New_Systems/rnas/1q8n

>  <Rbt.Executable>
rbdock ($Id: //depot/dev/client3/rdock/2013.1/src/exe/rbdock.cxx#4 $)

>  <Rbt.Library>
libRbt.so (2013.1, Build901 2013/11/27)

>  <Rbt.Parameter_File>
/export/apps/rDock/src/rDock_2013.1_src/data/scripts/dock_solv.prm

>  <Rbt.Receptor>
prm/pocket_docking_3.prm

>  <SCORE>
-53.4016

>  <SCORE.INTER>
-53.9319

>  <SCORE.INTER.CONST>
1

>  <SCORE.INTER.POLAR>
0

>  <SCORE.INTER.ROT>
5

>  <SCORE.INTER.SOLV>
10.3303

>  <SCORE.INTER.VDW>
-46.3313

>  <SCORE.INTER.norm>
-2.15727

>  <SCORE.INTRA>
0.530233

>  <SCORE.INTRA.DIHEDRAL>
0.956937

>  <SCORE.INTRA.DIHEDRAL.0>
2.1627

>  <SCORE.INTRA.POLAR>
0

>  <SCORE.INTRA.POLAR.0>
0

>  <SCORE.INTRA.REPUL>
0

>  <SCORE.INTRA.REPUL.0>
0

>  <SCORE.INTRA.SOLV>
0.0221189

>  <SCORE.INTRA.SOLV.lig_0>
-5.95779

>  <SCORE.INTRA.VDW>
0.0407054

>  <SCORE.INTRA.VDW.0>
3.81702

>  <SCORE.INTRA.norm>
0.0212093

>  <SCORE.RESTR>
0

>  <SCORE.RESTR.CAVITY>
0

>  <SCORE.RESTR.norm>
0

>  <SCORE.SYSTEM>
0

>  <SCORE.SYSTEM.CONST>
0

>  <SCORE.SYSTEM.DIHEDRAL>
0

>  <SCORE.SYSTEM.SOLV>
0

>  <SCORE.SYSTEM.norm>
0

>  <SCORE.heavy>
25

>  <SCORE.norm>
-2.13607

>  <RMSD>
0.627

$$$$
1q8n_lig
 OpenBabel11021811403D
libRbt.so/2013.1/901 2013/11/27
 25 27  0  0  0  0  0  0  0  0999 V2000
    0.6071    0.8214   -1.7428 C   0  0  0  0  0  0  0  0  0  0  0  0
    0.5681    1.9680   -2.9044 C   0  0  0  0  0  0  0  0  0  0  0  0
   -1.1923    2.3101    3.7315 N   0  0  0  0  0  0  0  0  0  0  0  0
    1.2266    3.1481   -2.8121 C   0  0  0  0  0  0  0  0  0  0  0  0
    2.3920   -4.8245   -2.6653 N   0  0  0  0  0  0  0  0  0  0  0  0
    1.1603    4.1648   -3.8872 C   0  0  0  0  0  0  0  0  0  0  0  0
    0.4272    3.9209   -4.9976 C   0  0  0  0  0  0  0  0  0  0  0  0
   -0.2774    2.6661   -5.1194 C   0  0  0  0  0  0  0  0  0  0  0  0
   -0.2113    1.7582   -4.1423 C   0  0  0  0  0  0  0  0  0  0  0  0
    0.1155    1.2245   -0.2408 C   0  0  0  0  0  0  0  0  0  0  0  0
    0.5018    0.5102    0.8367 C   0  0  0  0  0  0  0  0  0  0  0  0
    0.0628    0.8637    2.2152 C   0  0  0  0  0  0  0  0  0  0  0  0
   -0.7490    1.9350    2.4213 C   0  0  0  0  0  0  0  0  0  0  0  0
   -1.1778    2.7269    1.2530 C   0  0  0  0  0  0  0  0  0  0  0  0
   -0.7748    2.3937    0.0188 C   0  0  0  0  0  0  0  0  0  0  0  0
    1.1299   -0.7204   -2.0562 C   0  0  0  0  0  0  0  0  0  0  0  0
    1.0091   -1.7805   -0.9963 C   0  0  0  0  0  0  0  0  0  0  0  0
    1.4021   -3.0427   -1.1879 C   0  0  0  0  0  0  0  0  0  0  0  0
    1.9838   -3.4653   -2.4673 C   0  0  0  0  0  0  0  0  0  0  0  0
    2.1204   -2.5513   -3.4504 C   0  0  0  0  0  0  0  0  0  0  0  0
    1.6808   -1.1299   -3.2471 C   0  0  0  0  0  0  0  0  0  0  0  0
   -1.9432    3.5048    3.9709 C   0  0  0  0  0  0  0  0  0  0  0  0
   -0.8899    1.4816    4.8573 C   0  0  0  0  0  0  0  0  0  0  0  0
    1.8585   -5.8695   -1.8396 C   0  0  0  0  0  0  0  0  0  0  0  0
    3.3398   -5.1805   -3.6970 C   0  0  0  0  0  0  0  0  0  0  0  0
  1  2  1  0  0  0  0
  1 10  1  0  0  0  0
  1 16  1  0  0  0  0
  2  4  2  0  0  0  0
  2  9  1  0  0  0  0
  4  6  1  0  0  0  0
  6  7  2  0  0  0  0
  7  8  1  0  0  0  0
  8  9  2  0  0  0  0
 10 11  2  0  0  0  0
 10 15  1  0  0  0  0
 11 12  1  0  0  0  0
 12 13  2  0  0  0  0
 13  3  1  0  0  0  0
 13 14  1  0  0  0  0
 14 15  2  0  0  0  0
 16 17  2  0  0  0  0
 16 21  1  0  0  0  0
 17 18  1  0  0  0  0
 18 19  2  0  0  0  0
 19  5  1  0  0  0  0
 19 20  1  0  0  0  0
 20 21  2  0  0  0  0
 22  3  1  0  0  0  0
 23  3  1  0  0  0  0
 24  5  1  0  0  0  0
 25  5  1  0  0  0  0
M  END
>  <CHROM.1>
57.60130919,-158.60068039,-173.40962913,174.07747469,20.82531231,0.57482148
0.22182344,-1.06965127,3.12433567,-1.21168212,2.25472624

>  <Name>
1q8n_lig

>  <RI>
0

>  <Rbt.Current_Directory>
/home/itssahil/PROJECTS/Mol_Feturizer/New_Systems/rnas/1q8n

>  <Rbt.Executable>
rbdock ($Id: //depot/dev/client3/rdock/2013.1/src/exe/rbdock.cxx#4 $)

>  <Rbt.Library>
libRbt.so (2013.1, Build901 2013/11/27)

>  <Rbt.Parameter_File>
/export/apps/rDock/src/rDock_2013.1_src/data/scripts/dock_solv.prm

>  <Rbt.Receptor>
prm/blind_docking_20.prm

>  <SCORE>
-52.9239

>  <SCORE.INTER>
-53.5578

>  <SCORE.INTER.CONST>
1

>  <SCORE.INTER.POLAR>
0

>  <SCORE.INTER.ROT>
5

>  <SCORE.INTER.SOLV>
10.3853

>  <SCORE.INTER.VDW>
-46.1003

>  <SCORE.INTER.norm>
-2.14231

>  <SCORE.INTRA>
0.633975

>  <SCORE.INTRA.DIHEDRAL>
1.75137

>  <SCORE.INTRA.DIHEDRAL.0>
2.1627

>  <SCORE.INTRA.POLAR>
0

>  <SCORE.INTRA.POLAR.0>
0

>  <SCORE.INTRA.REPUL>
0

>  <SCORE.INTRA.REPUL.0>
0

>  <SCORE.INTRA.SOLV>
0.0220207

>  <SCORE.INTRA.SOLV.lig_0>
-5.95779

>  <SCORE.INTRA.VDW>
-0.25272

>  <SCORE.INTRA.VDW.0>
3.81702

>  <SCORE.INTRA.norm>
0.025359

>  <SCORE.RESTR>
0

>  <SCORE.RESTR.CAVITY>
0

>  <SCORE.RESTR.norm>
0

>  <SCORE.SYSTEM>
0

>  <SCORE.SYSTEM.CONST>
0

>  <SCORE.SYSTEM.DIHEDRAL>
0

>  <SCORE.SYSTEM.SOLV>
0

>  <SCORE.SYSTEM.norm>
0

>  <SCORE.heavy>
25

>  <SCORE.norm>
-2.11695

>  <RMSD>
0.628

$$$$
1q8n_lig
 OpenBabel11021811403D
libRbt.so/2013.1/901 2013/11/27
 25 27  0  0  0  0  0  0  0  0999 V2000
    0.5555    1.0255   -1.6946 C   0  0  0  0  0  0  0  0  0  0  0  0
    0.5460    2.1101   -2.9148 C   0  0  0  0  0  0  0  0  0  0  0  0
    2.5025   -4.4872   -2.8087 N   0  0  0  0  0  0  0  0  0  0  0  0
    1.2131    3.2883   -2.8729 C   0  0  0  0  0  0  0  0  0  0  0  0
   -1.1668    2.2839    3.9057 N   0  0  0  0  0  0  0  0  0  0  0  0
    1.1735    4.2479   -4.0005 C   0  0  0  0  0  0  0  0  0  0  0  0
    0.4571    3.9520   -5.1092 C   0  0  0  0  0  0  0  0  0  0  0  0
   -0.2562    2.6980   -5.1774 C   0  0  0  0  0  0  0  0  0  0  0  0
   -0.2143    1.8419   -4.1534 C   0  0  0  0  0  0  0  0  0  0  0  0
    1.0896   -0.4840   -2.0051 C   0  0  0  0  0  0  0  0  0  0  0  0
    1.7149   -0.7801   -3.1634 C   0  0  0  0  0  0  0  0  0  0  0  0
    2.2091   -2.1525   -3.4638 C   0  0  0  0  0  0  0  0  0  0  0  0
    2.0401   -3.1539   -2.5595 C   0  0  0  0  0  0  0  0  0  0  0  0
    1.3601   -2.8447   -1.2874 C   0  0  0  0  0  0  0  0  0  0  0  0
    0.9199   -1.6043   -1.0339 C   0  0  0  0  0  0  0  0  0  0  0  0
    0.0393    1.4230   -0.1701 C   0  0  0  0  0  0  0  0  0  0  0  0
    0.3856    0.5334    0.9920 C   0  0  0  0  0  0  0  0  0  0  0  0
    0.0091    0.8014    2.2453 C   0  0  0  0  0  0  0  0  0  0  0  0
   -0.7777    2.0007    2.5560 C   0  0  0  0  0  0  0  0  0  0  0  0
   -1.1205    2.8298    1.5482 C   0  0  0  0  0  0  0  0  0  0  0  0
   -0.7017    2.5396    0.1357 C   0  0  0  0  0  0  0  0  0  0  0  0
    2.0328   -5.6114   -2.0576 C   0  0  0  0  0  0  0  0  0  0  0  0
    3.4650   -4.7339   -3.8372 C   0  0  0  0  0  0  0  0  0  0  0  0
   -1.9209    3.4659    4.2102 C   0  0  0  0  0  0  0  0  0  0  0  0
   -0.8197    1.3925    4.9893 C   0  0  0  0  0  0  0  0  0  0  0  0
  1  2  1  0  0  0  0
  1 10  1  0  0  0  0
  1 16  1  0  0  0  0
  2  4  2  0  0  0  0
  2  9  1  0  0  0  0
  4  6  1  0  0  0  0
  6  7  2  0  0  0  0
  7  8  1  0  0  0  0
  8  9  2  0  0  0  0
 10 11  2  0  0  0  0
 10 15  1  0  0  0  0
 11 12  1  0  0  0  0
 12 13  2  0  0  0  0
 13  3  1  0  0  0  0
 13 14  1  0  0  0  0
 14 15  2  0  0  0  0
 16 17  2  0  0  0  0
 16 21  1  0  0  0  0
 17 18  1  0  0  0  0
 18 19  2  0  0  0  0
 19  5  1  0  0  0  0
 19 20  1  0  0  0  0
 20 21  2  0  0  0  0
 22  3  1  0  0  0  0
 23  3  1  0  0  0  0
 24  5  1  0  0  0  0
 25  5  1  0  0  0  0
M  END
>  <CHROM.1>
-121.88948458,10.95829824,-164.28787363,-162.87530467,179.17412175,0.59235701
0.37102954,-1.05333305,0.14441971,1.20088434,-0.90653777

>  <Name>
1q8n_lig

>  <RI>
0

>  <Rbt.Current_Directory>
/home/itssahil/PROJECTS/Mol_Feturizer/New_Systems/rnas/1q8n

>  <Rbt.Executable>
rbdock ($Id: //depot/dev/client3/rdock/2013.1/src/exe/rbdock.cxx#4 $)

>  <Rbt.Library>
libRbt.so (2013.1, Build901 2013/11/27)

>  <Rbt.Parameter_File>
/export/apps/rDock/src/rDock_2013.1_src/data/scripts/dock_solv.prm

>  <Rbt.Receptor>
prm/pocket_docking_5.prm

>  <SCORE>
-53.9431

>  <SCORE.INTER>
-54.5526

>  <SCORE.INTER.CONST>
1

>  <SCORE.INTER.POLAR>
0

>  <SCORE.INTER.ROT>
5

>  <SCORE.INTER.SOLV>
10.2035

>  <SCORE.INTER.VDW>
-46.7029

>  <SCORE.INTER.norm>
-2.1821

>  <SCORE.INTRA>
0.609531

>  <SCORE.INTRA.DIHEDRAL>
1.11106

>  <SCORE.INTRA.DIHEDRAL.0>
2.1627

>  <SCORE.INTRA.POLAR>
0

>  <SCORE.INTRA.POLAR.0>
0

>  <SCORE.INTRA.REPUL>
0

>  <SCORE.INTRA.REPUL.0>
0

>  <SCORE.INTRA.SOLV>
0.0261606

>  <SCORE.INTRA.SOLV.lig_0>
-5.95779

>  <SCORE.INTRA.VDW>
0.0409213

>  <SCORE.INTRA.VDW.0>
3.81702

>  <SCORE.INTRA.norm>
0.0243812

>  <SCORE.RESTR>
0

>  <SCORE.RESTR.CAVITY>
0

>  <SCORE.RESTR.norm>
0

>  <SCORE.SYSTEM>
0

>  <SCORE.SYSTEM.CONST>
0

>  <SCORE.SYSTEM.DIHEDRAL>
0

>  <SCORE.SYSTEM.SOLV>
0

>  <SCORE.SYSTEM.norm>
0

>  <SCORE.heavy>
25

>  <SCORE.norm>
-2.15772

>  <RMSD>
0.628

$$$$
1q8n_lig
 OpenBabel11021811403D
libRbt.so/2013.1/901 2013/11/27
 25 27  0  0  0  0  0  0  0  0999 V2000
    0.5959    1.1230   -1.6361 C   0  0  0  0  0  0  0  0  0  0  0  0
    0.6025    2.2223   -2.8432 C   0  0  0  0  0  0  0  0  0  0  0  0
    2.5627   -4.3662   -2.8289 N   0  0  0  0  0  0  0  0  0  0  0  0
    1.2278    3.4209   -2.7592 C   0  0  0  0  0  0  0  0  0  0  0  0
   -1.2098    2.3055    3.9544 N   0  0  0  0  0  0  0  0  0  0  0  0
    1.2046    4.3931   -3.8764 C   0  0  0  0  0  0  0  0  0  0  0  0
    0.5461    4.0883   -5.0181 C   0  0  0  0  0  0  0  0  0  0  0  0
   -0.1218    2.8127   -5.1312 C   0  0  0  0  0  0  0  0  0  0  0  0
   -0.0952    1.9454   -4.1162 C   0  0  0  0  0  0  0  0  0  0  0  0
    1.1339   -0.3828   -1.9579 C   0  0  0  0  0  0  0  0  0  0  0  0
    0.8732   -1.4115   -1.1247 C   0  0  0  0  0  0  0  0  0  0  0  0
    1.3563   -2.7926   -1.4025 C   0  0  0  0  0  0  0  0  0  0  0  0
    2.0811   -3.0515   -2.5236 C   0  0  0  0  0  0  0  0  0  0  0  0
    2.3722   -1.9370   -3.4452 C   0  0  0  0  0  0  0  0  0  0  0  0
    1.9313   -0.6996   -3.1789 C   0  0  0  0  0  0  0  0  0  0  0  0
    0.0598    1.5021   -0.1138 C   0  0  0  0  0  0  0  0  0  0  0  0
    0.3298    0.5628    1.0292 C   0  0  0  0  0  0  0  0  0  0  0  0
   -0.0661    0.8134    2.2802 C   0  0  0  0  0  0  0  0  0  0  0  0
   -0.7995    2.0418    2.6070 C   0  0  0  0  0  0  0  0  0  0  0  0
   -1.0732    2.9161    1.6165 C   0  0  0  0  0  0  0  0  0  0  0  0
   -0.6320    2.6458    0.2068 C   0  0  0  0  0  0  0  0  0  0  0  0
    3.5096   -4.6092   -3.8743 C   0  0  0  0  0  0  0  0  0  0  0  0
    2.1003   -5.4932   -2.0797 C   0  0  0  0  0  0  0  0  0  0  0  0
   -0.8851    1.3838    5.0049 C   0  0  0  0  0  0  0  0  0  0  0  0
   -1.9508    3.4995    4.2930 C   0  0  0  0  0  0  0  0  0  0  0  0
  1  2  1  0  0  0  0
  1 10  1  0  0  0  0
  1 16  1  0  0  0  0
  2  4  2  0  0  0  0
  2  9  1  0  0  0  0
  4  6  1  0  0  0  0
  6  7  2  0  0  0  0
  7  8  1  0  0  0  0
  8  9  2  0  0  0  0
 10 11  2  0  0  0  0
 10 15  1  0  0  0  0
 11 12  1  0  0  0  0
 12 13  2  0  0  0  0
 13  3  1  0  0  0  0
 13 14  1  0  0  0  0
 14 15  2  0  0  0  0
 16 17  2  0  0  0  0
 16 21  1  0  0  0  0
 17 18  1  0  0  0  0
 18 19  2  0  0  0  0
 19  5  1  0  0  0  0
 19 20  1  0  0  0  0
 20 21  2  0  0  0  0
 22  3  1  0  0  0  0
 23  3  1  0  0  0  0
 24  5  1  0  0  0  0
 25  5  1  0  0  0  0
M  END
>  <CHROM.1>
-124.43005140,-164.31962141,-167.43945405,-169.13153017,1.23993323,0.62825758
0.46438502,-1.02192265,0.11139403,1.19217999,-0.85475201

>  <Name>
1q8n_lig

>  <RI>
0

>  <Rbt.Current_Directory>
/home/itssahil/PROJECTS/Mol_Feturizer/New_Systems/rnas/1q8n

>  <Rbt.Executable>
rbdock ($Id: //depot/dev/client3/rdock/2013.1/src/exe/rbdock.cxx#4 $)

>  <Rbt.Library>
libRbt.so (2013.1, Build901 2013/11/27)

>  <Rbt.Parameter_File>
/export/apps/rDock/src/rDock_2013.1_src/data/scripts/dock_solv.prm

>  <Rbt.Receptor>
prm/pocket_docking_4.prm

>  <SCORE>
-54.0314

>  <SCORE.INTER>
-54.542

>  <SCORE.INTER.CONST>
1

>  <SCORE.INTER.POLAR>
0

>  <SCORE.INTER.ROT>
5

>  <SCORE.INTER.SOLV>
10.3266

>  <SCORE.INTER.VDW>
-46.7369

>  <SCORE.INTER.norm>
-2.18168

>  <SCORE.INTRA>
0.510565

>  <SCORE.INTRA.DIHEDRAL>
0.460389

>  <SCORE.INTRA.DIHEDRAL.0>
2.1627

>  <SCORE.INTRA.POLAR>
0

>  <SCORE.INTRA.POLAR.0>
0

>  <SCORE.INTRA.REPUL>
0

>  <SCORE.INTRA.REPUL.0>
0

>  <SCORE.INTRA.SOLV>
0.0259601

>  <SCORE.INTRA.SOLV.lig_0>
-5.95779

>  <SCORE.INTRA.VDW>
0.26739

>  <SCORE.INTRA.VDW.0>
3.81702

>  <SCORE.INTRA.norm>
0.0204226

>  <SCORE.RESTR>
0

>  <SCORE.RESTR.CAVITY>
0

>  <SCORE.RESTR.norm>
0

>  <SCORE.SYSTEM>
0

>  <SCORE.SYSTEM.CONST>
0

>  <SCORE.SYSTEM.DIHEDRAL>
0

>  <SCORE.SYSTEM.SOLV>
0

>  <SCORE.SYSTEM.norm>
0

>  <SCORE.heavy>
25

>  <SCORE.norm>
-2.16126

>  <RMSD>
0.630

$$$$
1q8n_lig
 OpenBabel11021811413D
libRbt.so/2013.1/901 2013/11/27
 25 27  0  0  0  0  0  0  0  0999 V2000
    0.5836    1.1225   -1.6535 C   0  0  0  0  0  0  0  0  0  0  0  0
    0.5891    2.2257   -2.8570 C   0  0  0  0  0  0  0  0  0  0  0  0
    2.5343   -4.3672   -2.8698 N   0  0  0  0  0  0  0  0  0  0  0  0
    1.2145    3.4241   -2.7696 C   0  0  0  0  0  0  0  0  0  0  0  0
   -1.1977    2.2953    3.9468 N   0  0  0  0  0  0  0  0  0  0  0  0
    1.1903    4.3999   -3.8836 C   0  0  0  0  0  0  0  0  0  0  0  0
    0.5310    4.0987   -5.0258 C   0  0  0  0  0  0  0  0  0  0  0  0
   -0.1368    2.8235   -5.1426 C   0  0  0  0  0  0  0  0  0  0  0  0
   -0.1095    1.9530   -4.1304 C   0  0  0  0  0  0  0  0  0  0  0  0
    1.1172   -0.3834   -1.9817 C   0  0  0  0  0  0  0  0  0  0  0  0
    0.8663   -1.4120   -1.1455 C   0  0  0  0  0  0  0  0  0  0  0  0
    1.3456   -2.7932   -1.4290 C   0  0  0  0  0  0  0  0  0  0  0  0
    2.0568   -3.0523   -2.5588 C   0  0  0  0  0  0  0  0  0  0  0  0
    2.3370   -1.9380   -3.4839 C   0  0  0  0  0  0  0  0  0  0  0  0
    1.8996   -0.7004   -3.2124 C   0  0  0  0  0  0  0  0  0  0  0  0
    0.0527    1.4979   -0.1284 C   0  0  0  0  0  0  0  0  0  0  0  0
    0.3570    0.5730    1.0177 C   0  0  0  0  0  0  0  0  0  0  0  0
   -0.0330    0.8217    2.2708 C   0  0  0  0  0  0  0  0  0  0  0  0
   -0.7939    2.0334    2.5972 C   0  0  0  0  0  0  0  0  0  0  0  0
   -1.0988    2.8943    1.6040 C   0  0  0  0  0  0  0  0  0  0  0  0
   -0.6644    2.6260    0.1918 C   0  0  0  0  0  0  0  0  0  0  0  0
    2.0752   -5.5309   -2.1745 C   0  0  0  0  0  0  0  0  0  0  0  0
    3.5020   -4.5541   -3.9061 C   0  0  0  0  0  0  0  0  0  0  0  0
   -1.9582    3.4706    4.2611 C   0  0  0  0  0  0  0  0  0  0  0  0
   -0.8594    1.3887    5.0206 C   0  0  0  0  0  0  0  0  0  0  0  0
  1  2  1  0  0  0  0
  1 10  1  0  0  0  0
  1 16  1  0  0  0  0
  2  4  2  0  0  0  0
  2  9  1  0  0  0  0
  4  6  1  0  0  0  0
  6  7  2  0  0  0  0
  7  8  1  0  0  0  0
  8  9  2  0  0  0  0
 10 11  2  0  0  0  0
 10 15  1  0  0  0  0
 11 12  1  0  0  0  0
 12 13  2  0  0  0  0
 13  3  1  0  0  0  0
 13 14  1  0  0  0  0
 14 15  2  0  0  0  0
 16 17  2  0  0  0  0
 16 21  1  0  0  0  0
 17 18  1  0  0  0  0
 18 19  2  0  0  0  0
 19  5  1  0  0  0  0
 19 20  1  0  0  0  0
 20 21  2  0  0  0  0
 22  3  1  0  0  0  0
 23  3  1  0  0  0  0
 24  5  1  0  0  0  0
 25  5  1  0  0  0  0
M  END
>  <CHROM.1>
-124.61233909,-164.89331806,-165.73922733,13.03645213,-179.09202372,0.61831267
0.46369559,-1.04332833,0.11854628,1.19537111,-0.85794592

>  <Name>
1q8n_lig

>  <RI>
0

>  <Rbt.Current_Directory>
/home/itssahil/PROJECTS/Mol_Feturizer/New_Systems/rnas/1q8n

>  <Rbt.Executable>
rbdock ($Id: //depot/dev/client3/rdock/2013.1/src/exe/rbdock.cxx#4 $)

>  <Rbt.Library>
libRbt.so (2013.1, Build901 2013/11/27)

>  <Rbt.Parameter_File>
/export/apps/rDock/src/rDock_2013.1_src/data/scripts/dock_solv.prm

>  <Rbt.Receptor>
prm/pocket_docking_8.prm

>  <SCORE>
-53.8874

>  <SCORE.INTER>
-54.4554

>  <SCORE.INTER.CONST>
1

>  <SCORE.INTER.POLAR>
0

>  <SCORE.INTER.ROT>
5

>  <SCORE.INTER.SOLV>
10.3026

>  <SCORE.INTER.VDW>
-46.6711

>  <SCORE.INTER.norm>
-2.17822

>  <SCORE.INTRA>
0.568016

>  <SCORE.INTRA.DIHEDRAL>
0.653994

>  <SCORE.INTRA.DIHEDRAL.0>
2.1627

>  <SCORE.INTRA.POLAR>
0

>  <SCORE.INTRA.POLAR.0>
0

>  <SCORE.INTRA.REPUL>
0

>  <SCORE.INTRA.REPUL.0>
0

>  <SCORE.INTRA.SOLV>
0.0258324

>  <SCORE.INTRA.SOLV.lig_0>
-5.95779

>  <SCORE.INTRA.VDW>
0.228103

>  <SCORE.INTRA.VDW.0>
3.81702

>  <SCORE.INTRA.norm>
0.0227207

>  <SCORE.RESTR>
0

>  <SCORE.RESTR.CAVITY>
0

>  <SCORE.RESTR.norm>
0

>  <SCORE.SYSTEM>
0

>  <SCORE.SYSTEM.CONST>
0

>  <SCORE.SYSTEM.DIHEDRAL>
0

>  <SCORE.SYSTEM.SOLV>
0

>  <SCORE.SYSTEM.norm>
0

>  <SCORE.heavy>
25

>  <SCORE.norm>
-2.1555

>  <RMSD>
0.630

$$$$
1q8n_lig
 OpenBabel11021811403D
libRbt.so/2013.1/901 2013/11/27
 25 27  0  0  0  0  0  0  0  0999 V2000
    0.5900    0.8046   -1.7739 C   0  0  0  0  0  0  0  0  0  0  0  0
    0.5311    1.9451   -2.9407 C   0  0  0  0  0  0  0  0  0  0  0  0
   -1.1507    2.3117    3.7143 N   0  0  0  0  0  0  0  0  0  0  0  0
   -0.1172    1.7770   -4.1181 C   0  0  0  0  0  0  0  0  0  0  0  0
    2.3946   -4.8363   -2.6887 N   0  0  0  0  0  0  0  0  0  0  0  0
   -0.1415    2.8360   -5.1535 C   0  0  0  0  0  0  0  0  0  0  0  0
    0.4954    4.0083   -4.9299 C   0  0  0  0  0  0  0  0  0  0  0  0
    1.1870    4.2109   -3.6783 C   0  0  0  0  0  0  0  0  0  0  0  0
    1.2033    3.2478   -2.7535 C   0  0  0  0  0  0  0  0  0  0  0  0
    0.1146    1.2128   -0.2681 C   0  0  0  0  0  0  0  0  0  0  0  0
    0.5220    0.5093    0.8087 C   0  0  0  0  0  0  0  0  0  0  0  0
    0.0980    0.8675    2.1907 C   0  0  0  0  0  0  0  0  0  0  0  0
   -0.7213    1.9323    2.4007 C   0  0  0  0  0  0  0  0  0  0  0  0
   -1.1731    2.7125    1.2332 C   0  0  0  0  0  0  0  0  0  0  0  0
   -0.7834    2.3751   -0.0041 C   0  0  0  0  0  0  0  0  0  0  0  0
    1.1170   -0.7361   -2.0859 C   0  0  0  0  0  0  0  0  0  0  0  0
    1.0253   -1.7885   -1.0155 C   0  0  0  0  0  0  0  0  0  0  0  0
    1.4230   -3.0495   -1.2052 C   0  0  0  0  0  0  0  0  0  0  0  0
    1.9812   -3.4783   -2.4929 C   0  0  0  0  0  0  0  0  0  0  0  0
    2.0912   -2.5713   -3.4858 C   0  0  0  0  0  0  0  0  0  0  0  0
    1.6461   -1.1514   -3.2846 C   0  0  0  0  0  0  0  0  0  0  0  0
   -1.9148    3.4977    3.9553 C   0  0  0  0  0  0  0  0  0  0  0  0
   -0.8203    1.4966    4.8420 C   0  0  0  0  0  0  0  0  0  0  0  0
    3.3746   -5.1595   -3.6855 C   0  0  0  0  0  0  0  0  0  0  0  0
    1.8462   -5.9099   -1.8910 C   0  0  0  0  0  0  0  0  0  0  0  0
  1  2  1  0  0  0  0
  1 10  1  0  0  0  0
  1 16  1  0  0  0  0
  2  4  2  0  0  0  0
  2  9  1  0  0  0  0
  4  6  1  0  0  0  0
  6  7  2  0  0  0  0
  7  8  1  0  0  0  0
  8  9  2  0  0  0  0
 10 11  2  0  0  0  0
 10 15  1  0  0  0  0
 11 12  1  0  0  0  0
 12 13  2  0  0  0  0
 13  3  1  0  0  0  0
 13 14  1  0  0  0  0
 14 15  2  0  0  0  0
 16 17  2  0  0  0  0
 16 21  1  0  0  0  0
 17 18  1  0  0  0  0
 18 19  2  0  0  0  0
 19  5  1  0  0  0  0
 19 20  1  0  0  0  0
 20 21  2  0  0  0  0
 22  3  1  0  0  0  0
 23  3  1  0  0  0  0
 24  5  1  0  0  0  0
 25  5  1  0  0  0  0
M  END
>  <CHROM.1>
-126.07870654,-158.32521497,-173.93029903,174.35868619,-155.92263679,0.59342894
0.23101106,-1.07612856,-3.12280757,-1.21617634,2.27695245

>  <Name>
1q8n_lig

>  <RI>
0

>  <Rbt.Current_Directory>
/home/itssahil/PROJECTS/Mol_Feturizer/New_Systems/rnas/1q8n

>  <Rbt.Executable>
rbdock ($Id: //depot/dev/client3/rdock/2013.1/src/exe/rbdock.cxx#4 $)

>  <Rbt.Library>
libRbt.so (2013.1, Build901 2013/11/27)

>  <Rbt.Parameter_File>
/export/apps/rDock/src/rDock_2013.1_src/data/scripts/dock_solv.prm

>  <Rbt.Receptor>
prm/blind_docking_20.prm

>  <SCORE>
-52.0347

>  <SCORE.INTER>
-52.8037

>  <SCORE.INTER.CONST>
1

>  <SCORE.INTER.POLAR>
0

>  <SCORE.INTER.ROT>
5

>  <SCORE.INTER.SOLV>
10.5116

>  <SCORE.INTER.VDW>
-45.6396

>  <SCORE.INTER.norm>
-2.11215

>  <SCORE.INTRA>
0.768999

>  <SCORE.INTRA.DIHEDRAL>
2.25119

>  <SCORE.INTRA.DIHEDRAL.0>
2.1627

>  <SCORE.INTRA.POLAR>
0

>  <SCORE.INTRA.POLAR.0>
0

>  <SCORE.INTRA.REPUL>
0

>  <SCORE.INTRA.REPUL.0>
0

>  <SCORE.INTRA.SOLV>
0.0255711

>  <SCORE.INTRA.SOLV.lig_0>
-5.95779

>  <SCORE.INTRA.VDW>
-0.369379

>  <SCORE.INTRA.VDW.0>
3.81702

>  <SCORE.INTRA.norm>
0.03076

>  <SCORE.RESTR>
0

>  <SCORE.RESTR.CAVITY>
0

>  <SCORE.RESTR.norm>
0

>  <SCORE.SYSTEM>
0

>  <SCORE.SYSTEM.CONST>
0

>  <SCORE.SYSTEM.DIHEDRAL>
0

>  <SCORE.SYSTEM.SOLV>
0

>  <SCORE.SYSTEM.norm>
0

>  <SCORE.heavy>
25

>  <SCORE.norm>
-2.08139

>  <RMSD>
0.632

$$$$
1q8n_lig
 OpenBabel11021811413D
libRbt.so/2013.1/901 2013/11/27
 25 27  0  0  0  0  0  0  0  0999 V2000
    0.6022    1.1192   -1.6866 C   0  0  0  0  0  0  0  0  0  0  0  0
    0.5863    2.2144   -2.8974 C   0  0  0  0  0  0  0  0  0  0  0  0
    2.5940   -4.3598   -2.8845 N   0  0  0  0  0  0  0  0  0  0  0  0
    1.2310    3.4042   -2.8377 C   0  0  0  0  0  0  0  0  0  0  0  0
   -1.1694    2.2903    3.9172 N   0  0  0  0  0  0  0  0  0  0  0  0
    1.1863    4.3729   -3.9573 C   0  0  0  0  0  0  0  0  0  0  0  0
    0.4877    4.0738   -5.0764 C   0  0  0  0  0  0  0  0  0  0  0  0
   -0.2015    2.8076   -5.1636 C   0  0  0  0  0  0  0  0  0  0  0  0
   -0.1552    1.9434   -4.1467 C   0  0  0  0  0  0  0  0  0  0  0  0
    1.1468   -0.3838   -2.0099 C   0  0  0  0  0  0  0  0  0  0  0  0
    0.8374   -1.4265   -1.2114 C   0  0  0  0  0  0  0  0  0  0  0  0
    1.3257   -2.8054   -1.4911 C   0  0  0  0  0  0  0  0  0  0  0  0
    2.1054   -3.0478   -2.5785 C   0  0  0  0  0  0  0  0  0  0  0  0
    2.4502   -1.9179   -3.4621 C   0  0  0  0  0  0  0  0  0  0  0  0
    2.0037   -0.6827   -3.1946 C   0  0  0  0  0  0  0  0  0  0  0  0
    0.0822    1.5000   -0.1591 C   0  0  0  0  0  0  0  0  0  0  0  0
    0.2203    0.4937    0.9499 C   0  0  0  0  0  0  0  0  0  0  0  0
   -0.1695    0.7409    2.2034 C   0  0  0  0  0  0  0  0  0  0  0  0
   -0.7647    2.0321    2.5670 C   0  0  0  0  0  0  0  0  0  0  0  0
   -0.9171    2.9686    1.6077 C   0  0  0  0  0  0  0  0  0  0  0  0
   -0.4811    2.7026    0.1956 C   0  0  0  0  0  0  0  0  0  0  0  0
    2.1298   -5.5269   -2.1983 C   0  0  0  0  0  0  0  0  0  0  0  0
    3.5785   -4.5402   -3.9060 C   0  0  0  0  0  0  0  0  0  0  0  0
   -0.8252    1.3731    4.9654 C   0  0  0  0  0  0  0  0  0  0  0  0
   -1.9241    3.4742    4.2608 C   0  0  0  0  0  0  0  0  0  0  0  0
  1  2  1  0  0  0  0
  1 10  1  0  0  0  0
  1 16  1  0  0  0  0
  2  4  2  0  0  0  0
  2  9  1  0  0  0  0
  4  6  1  0  0  0  0
  6  7  2  0  0  0  0
  7  8  1  0  0  0  0
  8  9  2  0  0  0  0
 10 11  2  0  0  0  0
 10 15  1  0  0  0  0
 11 12  1  0  0  0  0
 12 13  2  0  0  0  0
 13  3  1  0  0  0  0
 13 14  1  0  0  0  0
 14 15  2  0  0  0  0
 16 17  2  0  0  0  0
 16 21  1  0  0  0  0
 17 18  1  0  0  0  0
 18 19  2  0  0  0  0
 19  5  1  0  0  0  0
 19 20  1  0  0  0  0
 20 21  2  0  0  0  0
 22  3  1  0  0  0  0
 23  3  1  0  0  0  0
 24  5  1  0  0  0  0
 25  5  1  0  0  0  0
M  END
>  <CHROM.1>
-122.78216001,-160.37571357,-175.00909618,10.04234696,9.03180245,0.64141391
0.45994967,-1.07308334,3.01306594,-1.19234692,2.27053931

>  <Name>
1q8n_lig

>  <RI>
0

>  <Rbt.Current_Directory>
/home/itssahil/PROJECTS/Mol_Feturizer/New_Systems/rnas/1q8n

>  <Rbt.Executable>
rbdock ($Id: //depot/dev/client3/rdock/2013.1/src/exe/rbdock.cxx#4 $)

>  <Rbt.Library>
libRbt.so (2013.1, Build901 2013/11/27)

>  <Rbt.Parameter_File>
/export/apps/rDock/src/rDock_2013.1_src/data/scripts/dock_solv.prm

>  <Rbt.Receptor>
prm/pocket_docking_8.prm

>  <SCORE>
-53.9138

>  <SCORE.INTER>
-54.4639

>  <SCORE.INTER.CONST>
1

>  <SCORE.INTER.POLAR>
0

>  <SCORE.INTER.ROT>
5

>  <SCORE.INTER.SOLV>
10.2922

>  <SCORE.INTER.VDW>
-46.6733

>  <SCORE.INTER.norm>
-2.17855

>  <SCORE.INTRA>
0.550079

>  <SCORE.INTRA.DIHEDRAL>
0.702977

>  <SCORE.INTRA.DIHEDRAL.0>
2.1627

>  <SCORE.INTRA.POLAR>
0

>  <SCORE.INTRA.POLAR.0>
0

>  <SCORE.INTRA.REPUL>
0

>  <SCORE.INTRA.REPUL.0>
0

>  <SCORE.INTRA.SOLV>
0.0243708

>  <SCORE.INTRA.SOLV.lig_0>
-5.95779

>  <SCORE.INTRA.VDW>
0.186404

>  <SCORE.INTRA.VDW.0>
3.81702

>  <SCORE.INTRA.norm>
0.0220031

>  <SCORE.RESTR>
0

>  <SCORE.RESTR.CAVITY>
0

>  <SCORE.RESTR.norm>
0

>  <SCORE.SYSTEM>
0

>  <SCORE.SYSTEM.CONST>
0

>  <SCORE.SYSTEM.DIHEDRAL>
0

>  <SCORE.SYSTEM.SOLV>
0

>  <SCORE.SYSTEM.norm>
0

>  <SCORE.heavy>
25

>  <SCORE.norm>
-2.15655

>  <RMSD>
0.635

$$$$
1q8n_lig
 OpenBabel11021811403D
libRbt.so/2013.1/901 2013/11/27
 25 27  0  0  0  0  0  0  0  0999 V2000
    0.5915    1.0016   -1.7608 C   0  0  0  0  0  0  0  0  0  0  0  0
    0.5801    2.0996   -2.9689 C   0  0  0  0  0  0  0  0  0  0  0  0
    2.5722   -4.4878   -2.9295 N   0  0  0  0  0  0  0  0  0  0  0  0
    1.2273    3.2879   -2.9052 C   0  0  0  0  0  0  0  0  0  0  0  0
   -1.1388    2.2045    3.8492 N   0  0  0  0  0  0  0  0  0  0  0  0
    1.1867    4.2594   -4.0225 C   0  0  0  0  0  0  0  0  0  0  0  0
    0.4895    3.9645   -5.1436 C   0  0  0  0  0  0  0  0  0  0  0  0
   -0.2024    2.7001   -5.2351 C   0  0  0  0  0  0  0  0  0  0  0  0
   -0.1598    1.8333   -4.2202 C   0  0  0  0  0  0  0  0  0  0  0  0
    1.1347   -0.5015   -2.0863 C   0  0  0  0  0  0  0  0  0  0  0  0
    1.7375   -0.7886   -3.2587 C   0  0  0  0  0  0  0  0  0  0  0  0
    2.2396   -2.1550   -3.5729 C   0  0  0  0  0  0  0  0  0  0  0  0
    2.1012   -3.1600   -2.6673 C   0  0  0  0  0  0  0  0  0  0  0  0
    1.4460   -2.8606   -1.3800 C   0  0  0  0  0  0  0  0  0  0  0  0
    0.9982   -1.6255   -1.1141 C   0  0  0  0  0  0  0  0  0  0  0  0
    0.0682    1.3793   -0.2336 C   0  0  0  0  0  0  0  0  0  0  0  0
    0.5171    0.5489    0.9370 C   0  0  0  0  0  0  0  0  0  0  0  0
    0.1401    0.8054    2.1926 C   0  0  0  0  0  0  0  0  0  0  0  0
   -0.7495    1.9321    2.4973 C   0  0  0  0  0  0  0  0  0  0  0  0
   -1.1866    2.7057    1.4819 C   0  0  0  0  0  0  0  0  0  0  0  0
   -0.7683    2.4279    0.0667 C   0  0  0  0  0  0  0  0  0  0  0  0
    2.0765   -5.6280   -2.2205 C   0  0  0  0  0  0  0  0  0  0  0  0
    3.5703   -4.7123   -3.9288 C   0  0  0  0  0  0  0  0  0  0  0  0
   -1.8578    3.4041    4.1692 C   0  0  0  0  0  0  0  0  0  0  0  0
   -0.8270    1.2844    4.9196 C   0  0  0  0  0  0  0  0  0  0  0  0
  1  2  1  0  0  0  0
  1 10  1  0  0  0  0
  1 16  1  0  0  0  0
  2  4  2  0  0  0  0
  2  9  1  0  0  0  0
  4  6  1  0  0  0  0
  6  7  2  0  0  0  0
  7  8  1  0  0  0  0
  8  9  2  0  0  0  0
 10 11  2  0  0  0  0
 10 15  1  0  0  0  0
 11 12  1  0  0  0  0
 12 13  2  0  0  0  0
 13  3  1  0  0  0  0
 13 14  1  0  0  0  0
 14 15  2  0  0  0  0
 16 17  2  0  0  0  0
 16 21  1  0  0  0  0
 17 18  1  0  0  0  0
 18 19  2  0  0  0  0
 19  5  1  0  0  0  0
 19 20  1  0  0  0  0
 20 21  2  0  0  0  0
 22  3  1  0  0  0  0
 23  3  1  0  0  0  0
 24  5  1  0  0  0  0
 25  5  1  0  0  0  0
M  END
>  <CHROM.1>
-122.72003179,9.39406695,-158.80632810,-159.35265244,171.60177456,0.63470720
0.34414479,-1.12618681,0.15594862,1.19577922,-0.90827487

>  <Name>
1q8n_lig

>  <RI>
0

>  <Rbt.Current_Directory>
/home/itssahil/PROJECTS/Mol_Feturizer/New_Systems/rnas/1q8n

>  <Rbt.Executable>
rbdock ($Id: //depot/dev/client3/rdock/2013.1/src/exe/rbdock.cxx#4 $)

>  <Rbt.Library>
libRbt.so (2013.1, Build901 2013/11/27)

>  <Rbt.Parameter_File>
/export/apps/rDock/src/rDock_2013.1_src/data/scripts/dock_solv.prm

>  <Rbt.Receptor>
prm/blind_docking_100.prm

>  <SCORE>
-53.8869

>  <SCORE.INTER>
-54.5307

>  <SCORE.INTER.CONST>
1

>  <SCORE.INTER.POLAR>
0

>  <SCORE.INTER.ROT>
5

>  <SCORE.INTER.SOLV>
10.2085

>  <SCORE.INTER.VDW>
-46.69

>  <SCORE.INTER.norm>
-2.18123

>  <SCORE.INTRA>
0.643743

>  <SCORE.INTRA.DIHEDRAL>
1.86409

>  <SCORE.INTRA.DIHEDRAL.0>
2.1627

>  <SCORE.INTRA.POLAR>
0

>  <SCORE.INTRA.POLAR.0>
0

>  <SCORE.INTRA.REPUL>
0

>  <SCORE.INTRA.REPUL.0>
0

>  <SCORE.INTRA.SOLV>
0.0252456

>  <SCORE.INTRA.SOLV.lig_0>
-5.95779

>  <SCORE.INTRA.VDW>
-0.300924

>  <SCORE.INTRA.VDW.0>
3.81702

>  <SCORE.INTRA.norm>
0.0257497

>  <SCORE.RESTR>
0

>  <SCORE.RESTR.CAVITY>
0

>  <SCORE.RESTR.norm>
0

>  <SCORE.SYSTEM>
0

>  <SCORE.SYSTEM.CONST>
0

>  <SCORE.SYSTEM.DIHEDRAL>
0

>  <SCORE.SYSTEM.SOLV>
0

>  <SCORE.SYSTEM.norm>
0

>  <SCORE.heavy>
25

>  <SCORE.norm>
-2.15548

>  <RMSD>
0.637

$$$$
1q8n_lig
 OpenBabel11021811403D
libRbt.so/2013.1/901 2013/11/27
 25 27  0  0  0  0  0  0  0  0999 V2000
    0.6016    1.1178   -1.6818 C   0  0  0  0  0  0  0  0  0  0  0  0
    0.5874    2.2183   -2.8877 C   0  0  0  0  0  0  0  0  0  0  0  0
    2.5947   -4.3560   -2.9011 N   0  0  0  0  0  0  0  0  0  0  0  0
    1.2178    3.4150   -2.8149 C   0  0  0  0  0  0  0  0  0  0  0  0
   -1.1656    2.2719    3.9269 N   0  0  0  0  0  0  0  0  0  0  0  0
    1.1753    4.3884   -3.9306 C   0  0  0  0  0  0  0  0  0  0  0  0
    0.4935    4.0866   -5.0593 C   0  0  0  0  0  0  0  0  0  0  0  0
   -0.1802    2.8131   -5.1604 C   0  0  0  0  0  0  0  0  0  0  0  0
   -0.1361    1.9447   -4.1470 C   0  0  0  0  0  0  0  0  0  0  0  0
    1.1464   -0.3839   -2.0110 C   0  0  0  0  0  0  0  0  0  0  0  0
    0.8210   -1.4332   -1.2278 C   0  0  0  0  0  0  0  0  0  0  0  0
    1.3093   -2.8109   -1.5130 C   0  0  0  0  0  0  0  0  0  0  0  0
    2.1055   -3.0454   -2.5903 C   0  0  0  0  0  0  0  0  0  0  0  0
    2.4678   -1.9082   -3.4571 C   0  0  0  0  0  0  0  0  0  0  0  0
    2.0211   -0.6742   -3.1847 C   0  0  0  0  0  0  0  0  0  0  0  0
    0.0794    1.4917   -0.1533 C   0  0  0  0  0  0  0  0  0  0  0  0
    0.2860    0.5110    0.9679 C   0  0  0  0  0  0  0  0  0  0  0  0
   -0.1021    0.7548    2.2226 C   0  0  0  0  0  0  0  0  0  0  0  0
   -0.7633    2.0165    2.5755 C   0  0  0  0  0  0  0  0  0  0  0  0
   -0.9784    2.9290    1.6051 C   0  0  0  0  0  0  0  0  0  0  0  0
   -0.5452    2.6666    0.1915 C   0  0  0  0  0  0  0  0  0  0  0  0
    3.5825   -4.5828   -3.9117 C   0  0  0  0  0  0  0  0  0  0  0  0
    2.0983   -5.4953   -2.1933 C   0  0  0  0  0  0  0  0  0  0  0  0
   -0.8270    1.3482    4.9712 C   0  0  0  0  0  0  0  0  0  0  0  0
   -1.9123    3.4594    4.2758 C   0  0  0  0  0  0  0  0  0  0  0  0
  1  2  1  0  0  0  0
  1 10  1  0  0  0  0
  1 16  1  0  0  0  0
  2  4  2  0  0  0  0
  2  9  1  0  0  0  0
  4  6  1  0  0  0  0
  6  7  2  0  0  0  0
  7  8  1  0  0  0  0
  8  9  2  0  0  0  0
 10 11  2  0  0  0  0
 10 15  1  0  0  0  0
 11 12  1  0  0  0  0
 12 13  2  0  0  0  0
 13  3  1  0  0  0  0
 13 14  1  0  0  0  0
 14 15  2  0  0  0  0
 16 17  2  0  0  0  0
 16 21  1  0  0  0  0
 17 18  1  0  0  0  0
 18 19  2  0  0  0  0
 19  5  1  0  0  0  0
 19 20  1  0  0  0  0
 20 21  2  0  0  0  0
 22  3  1  0  0  0  0
 23  3  1  0  0  0  0
 24  5  1  0  0  0  0
 25  5  1  0  0  0  0
M  END
>  <CHROM.1>
-123.67248243,-159.47411546,-171.57502570,-170.78310211,5.27546619,0.64201102
0.45662953,-1.06885519,3.01199734,-1.19241554,2.27198263

>  <Name>
1q8n_lig

>  <RI>
0

>  <Rbt.Current_Directory>
/home/itssahil/PROJECTS/Mol_Feturizer/New_Systems/rnas/1q8n

>  <Rbt.Executable>
rbdock ($Id: //depot/dev/client3/rdock/2013.1/src/exe/rbdock.cxx#4 $)

>  <Rbt.Library>
libRbt.so (2013.1, Build901 2013/11/27)

>  <Rbt.Parameter_File>
/export/apps/rDock/src/rDock_2013.1_src/data/scripts/dock_solv.prm

>  <Rbt.Receptor>
prm/blind_docking_20.prm

>  <SCORE>
-54.099

>  <SCORE.INTER>
-54.5467

>  <SCORE.INTER.CONST>
1

>  <SCORE.INTER.POLAR>
0

>  <SCORE.INTER.ROT>
5

>  <SCORE.INTER.SOLV>
10.2742

>  <SCORE.INTER.VDW>
-46.7225

>  <SCORE.INTER.norm>
-2.18187

>  <SCORE.INTRA>
0.447657

>  <SCORE.INTRA.DIHEDRAL>
0.435439

>  <SCORE.INTRA.DIHEDRAL.0>
2.1627

>  <SCORE.INTRA.POLAR>
0

>  <SCORE.INTRA.POLAR.0>
0

>  <SCORE.INTRA.REPUL>
0

>  <SCORE.INTRA.REPUL.0>
0

>  <SCORE.INTRA.SOLV>
0.0232516

>  <SCORE.INTRA.SOLV.lig_0>
-5.95779

>  <SCORE.INTRA.VDW>
0.218311

>  <SCORE.INTRA.VDW.0>
3.81702

>  <SCORE.INTRA.norm>
0.0179063

>  <SCORE.RESTR>
0

>  <SCORE.RESTR.CAVITY>
0

>  <SCORE.RESTR.norm>
0

>  <SCORE.SYSTEM>
0

>  <SCORE.SYSTEM.CONST>
0

>  <SCORE.SYSTEM.DIHEDRAL>
0

>  <SCORE.SYSTEM.SOLV>
0

>  <SCORE.SYSTEM.norm>
0

>  <SCORE.heavy>
25

>  <SCORE.norm>
-2.16396

>  <RMSD>
0.637

$$$$
1q8n_lig
 OpenBabel11021811403D
libRbt.so/2013.1/901 2013/11/27
 25 27  0  0  0  0  0  0  0  0999 V2000
    0.6113    1.1151   -1.6842 C   0  0  0  0  0  0  0  0  0  0  0  0
    0.5970    2.2147   -2.8910 C   0  0  0  0  0  0  0  0  0  0  0  0
    2.5953   -4.3623   -2.9019 N   0  0  0  0  0  0  0  0  0  0  0  0
    1.2460    3.4020   -2.8281 C   0  0  0  0  0  0  0  0  0  0  0  0
   -1.1535    2.2716    3.9248 N   0  0  0  0  0  0  0  0  0  0  0  0
    1.2027    4.3749   -3.9441 C   0  0  0  0  0  0  0  0  0  0  0  0
    0.5011    4.0824   -5.0630 C   0  0  0  0  0  0  0  0  0  0  0  0
   -0.1928    2.8190   -5.1536 C   0  0  0  0  0  0  0  0  0  0  0  0
   -0.1477    1.9509   -4.1399 C   0  0  0  0  0  0  0  0  0  0  0  0
    1.1536   -0.3875   -2.0129 C   0  0  0  0  0  0  0  0  0  0  0  0
    0.8205   -1.4373   -1.2336 C   0  0  0  0  0  0  0  0  0  0  0  0
    1.3063   -2.8160   -1.5186 C   0  0  0  0  0  0  0  0  0  0  0  0
    2.1082   -3.0508   -2.5915 C   0  0  0  0  0  0  0  0  0  0  0  0
    2.4791   -1.9131   -3.4541 C   0  0  0  0  0  0  0  0  0  0  0  0
    2.0344   -0.6783   -3.1820 C   0  0  0  0  0  0  0  0  0  0  0  0
    0.0918    1.4910   -0.1553 C   0  0  0  0  0  0  0  0  0  0  0  0
    0.2590    0.4932    0.9573 C   0  0  0  0  0  0  0  0  0  0  0  0
   -0.1289    0.7374    2.2120 C   0  0  0  0  0  0  0  0  0  0  0  0
   -0.7510    2.0165    2.5734 C   0  0  0  0  0  0  0  0  0  0  0  0
   -0.9300    2.9449    1.6108 C   0  0  0  0  0  0  0  0  0  0  0  0
   -0.4965    2.6823    0.1973 C   0  0  0  0  0  0  0  0  0  0  0  0
    3.5759   -4.5920   -3.9188 C   0  0  0  0  0  0  0  0  0  0  0  0
    2.1042   -5.4995   -2.1871 C   0  0  0  0  0  0  0  0  0  0  0  0
   -0.7955    1.3594    4.9726 C   0  0  0  0  0  0  0  0  0  0  0  0
   -1.9197    3.4477    4.2701 C   0  0  0  0  0  0  0  0  0  0  0  0
  1  2  1  0  0  0  0
  1 10  1  0  0  0  0
  1 16  1  0  0  0  0
  2  4  2  0  0  0  0
  2  9  1  0  0  0  0
  4  6  1  0  0  0  0
  6  7  2  0  0  0  0
  7  8  1  0  0  0  0
  8  9  2  0  0  0  0
 10 11  2  0  0  0  0
 10 15  1  0  0  0  0
 11 12  1  0  0  0  0
 12 13  2  0  0  0  0
 13  3  1  0  0  0  0
 13 14  1  0  0  0  0
 14 15  2  0  0  0  0
 16 17  2  0  0  0  0
 16 21  1  0  0  0  0
 17 18  1  0  0  0  0
 18 19  2  0  0  0  0
 19  5  1  0  0  0  0
 19 20  1  0  0  0  0
 20 21  2  0  0  0  0
 22  3  1  0  0  0  0
 23  3  1  0  0  0  0
 24  5  1  0  0  0  0
 25  5  1  0  0  0  0
M  END
>  <CHROM.1>
-122.62328342,-159.01769521,-173.51461296,-171.60283365,8.31952255,0.64966960
0.45353152,-1.07093856,3.01486633,-1.19372318,2.27440920

>  <Name>
1q8n_lig

>  <RI>
0

>  <Rbt.Current_Directory>
/home/itssahil/PROJECTS/Mol_Feturizer/New_Systems/rnas/1q8n

>  <Rbt.Executable>
rbdock ($Id: //depot/dev/client3/rdock/2013.1/src/exe/rbdock.cxx#4 $)

>  <Rbt.Library>
libRbt.so (2013.1, Build901 2013/11/27)

>  <Rbt.Parameter_File>
/export/apps/rDock/src/rDock_2013.1_src/data/scripts/dock_solv.prm

>  <Rbt.Receptor>
prm/blind_docking_80.prm

>  <SCORE>
-54.0685

>  <SCORE.INTER>
-54.5459

>  <SCORE.INTER.CONST>
1

>  <SCORE.INTER.POLAR>
0

>  <SCORE.INTER.ROT>
5

>  <SCORE.INTER.SOLV>
10.2769

>  <SCORE.INTER.VDW>
-46.7229

>  <SCORE.INTER.norm>
-2.18184

>  <SCORE.INTRA>
0.477326

>  <SCORE.INTRA.DIHEDRAL>
0.53943

>  <SCORE.INTRA.DIHEDRAL.0>
2.1627

>  <SCORE.INTRA.POLAR>
0

>  <SCORE.INTRA.POLAR.0>
0

>  <SCORE.INTRA.REPUL>
0

>  <SCORE.INTRA.REPUL.0>
0

>  <SCORE.INTRA.SOLV>
0.0225043

>  <SCORE.INTRA.SOLV.lig_0>
-5.95779

>  <SCORE.INTRA.VDW>
0.196359

>  <SCORE.INTRA.VDW.0>
3.81702

>  <SCORE.INTRA.norm>
0.019093

>  <SCORE.RESTR>
0

>  <SCORE.RESTR.CAVITY>
0

>  <SCORE.RESTR.norm>
0

>  <SCORE.SYSTEM>
0

>  <SCORE.SYSTEM.CONST>
0

>  <SCORE.SYSTEM.DIHEDRAL>
0

>  <SCORE.SYSTEM.SOLV>
0

>  <SCORE.SYSTEM.norm>
0

>  <SCORE.heavy>
25

>  <SCORE.norm>
-2.16274

>  <RMSD>
0.638

$$$$
1q8n_lig
 OpenBabel11021811403D
libRbt.so/2013.1/901 2013/11/27
 25 27  0  0  0  0  0  0  0  0999 V2000
    0.6161    1.1382   -1.6614 C   0  0  0  0  0  0  0  0  0  0  0  0
    0.6176    2.2440   -2.8625 C   0  0  0  0  0  0  0  0  0  0  0  0
    2.5527   -4.3604   -2.8597 N   0  0  0  0  0  0  0  0  0  0  0  0
    1.2496    3.4392   -2.7774 C   0  0  0  0  0  0  0  0  0  0  0  0
   -1.1597    2.2877    3.9456 N   0  0  0  0  0  0  0  0  0  0  0  0
    1.2215    4.4175   -3.8891 C   0  0  0  0  0  0  0  0  0  0  0  0
    0.5517    4.1221   -5.0267 C   0  0  0  0  0  0  0  0  0  0  0  0
   -0.1234    2.8505   -5.1409 C   0  0  0  0  0  0  0  0  0  0  0  0
   -0.0924    1.9776   -4.1309 C   0  0  0  0  0  0  0  0  0  0  0  0
    1.1479   -0.3672   -1.9949 C   0  0  0  0  0  0  0  0  0  0  0  0
    1.8804   -0.6215   -3.0990 C   0  0  0  0  0  0  0  0  0  0  0  0
    2.3743   -1.9895   -3.4193 C   0  0  0  0  0  0  0  0  0  0  0  0
    2.0949   -3.0297   -2.5891 C   0  0  0  0  0  0  0  0  0  0  0  0
    1.2968   -2.7665   -1.3768 C   0  0  0  0  0  0  0  0  0  0  0  0
    0.8586   -1.5294   -1.1046 C   0  0  0  0  0  0  0  0  0  0  0  0
    0.0911    1.5105   -0.1335 C   0  0  0  0  0  0  0  0  0  0  0  0
    0.3077    0.5344    0.9898 C   0  0  0  0  0  0  0  0  0  0  0  0
   -0.0821    0.7772    2.2442 C   0  0  0  0  0  0  0  0  0  0  0  0
   -0.7555    2.0332    2.5946 C   0  0  0  0  0  0  0  0  0  0  0  0
   -0.9801    2.9413    1.6222 C   0  0  0  0  0  0  0  0  0  0  0  0
   -0.5449    2.6800    0.2090 C   0  0  0  0  0  0  0  0  0  0  0  0
    2.0802   -5.4948   -2.1259 C   0  0  0  0  0  0  0  0  0  0  0  0
    3.5135   -4.5940   -3.8929 C   0  0  0  0  0  0  0  0  0  0  0  0
   -0.8057    1.3732    4.9929 C   0  0  0  0  0  0  0  0  0  0  0  0
   -1.9237    3.4651    4.2910 C   0  0  0  0  0  0  0  0  0  0  0  0
  1  2  1  0  0  0  0
  1 10  1  0  0  0  0
  1 16  1  0  0  0  0
  2  4  2  0  0  0  0
  2  9  1  0  0  0  0
  4  6  1  0  0  0  0
  6  7  2  0  0  0  0
  7  8  1  0  0  0  0
  8  9  2  0  0  0  0
 10 11  2  0  0  0  0
 10 15  1  0  0  0  0
 11 12  1  0  0  0  0
 12 13  2  0  0  0  0
 13  3  1  0  0  0  0
 13 14  1  0  0  0  0
 14 15  2  0  0  0  0
 16 17  2  0  0  0  0
 16 21  1  0  0  0  0
 17 18  1  0  0  0  0
 18 19  2  0  0  0  0
 19  5  1  0  0  0  0
 19 20  1  0  0  0  0
 20 21  2  0  0  0  0
 22  3  1  0  0  0  0
 23  3  1  0  0  0  0
 24  5  1  0  0  0  0
 25  5  1  0  0  0  0
M  END
>  <CHROM.1>
-124.25483038,16.76893012,-170.36887822,-169.11370246,5.59722346,0.64170309
0.46814356,-1.03298285,0.10501583,1.19836551,-0.84945384

>  <Name>
1q8n_lig

>  <RI>
0

>  <Rbt.Current_Directory>
/home/itssahil/PROJECTS/Mol_Feturizer/New_Systems/rnas/1q8n

>  <Rbt.Executable>
rbdock ($Id: //depot/dev/client3/rdock/2013.1/src/exe/rbdock.cxx#4 $)

>  <Rbt.Library>
libRbt.so (2013.1, Build901 2013/11/27)

>  <Rbt.Parameter_File>
/export/apps/rDock/src/rDock_2013.1_src/data/scripts/dock_solv.prm

>  <Rbt.Receptor>
prm/pocket_docking_4.prm

>  <SCORE>
-54.3364

>  <SCORE.INTER>
-54.8003

>  <SCORE.INTER.CONST>
1

>  <SCORE.INTER.POLAR>
0

>  <SCORE.INTER.ROT>
5

>  <SCORE.INTER.SOLV>
10.2604

>  <SCORE.INTER.VDW>
-46.887

>  <SCORE.INTER.norm>
-2.19201

>  <SCORE.INTRA>
0.463909

>  <SCORE.INTRA.DIHEDRAL>
0.575727

>  <SCORE.INTRA.DIHEDRAL.0>
2.1627

>  <SCORE.INTRA.POLAR>
0

>  <SCORE.INTRA.POLAR.0>
0

>  <SCORE.INTRA.REPUL>
0

>  <SCORE.INTRA.REPUL.0>
0

>  <SCORE.INTRA.SOLV>
0.027246

>  <SCORE.INTRA.SOLV.lig_0>
-5.95779

>  <SCORE.INTRA.VDW>
0.162423

>  <SCORE.INTRA.VDW.0>
3.81702

>  <SCORE.INTRA.norm>
0.0185564

>  <SCORE.RESTR>
0

>  <SCORE.RESTR.CAVITY>
0

>  <SCORE.RESTR.norm>
0

>  <SCORE.SYSTEM>
0

>  <SCORE.SYSTEM.CONST>
0

>  <SCORE.SYSTEM.DIHEDRAL>
0

>  <SCORE.SYSTEM.SOLV>
0

>  <SCORE.SYSTEM.norm>
0

>  <SCORE.heavy>
25

>  <SCORE.norm>
-2.17345

>  <RMSD>
0.638

$$$$
1q8n_lig
 OpenBabel11021811403D
libRbt.so/2013.1/901 2013/11/27
 25 27  0  0  0  0  0  0  0  0999 V2000
    0.5823    1.1078   -1.6542 C   0  0  0  0  0  0  0  0  0  0  0  0
    0.5718    2.2045   -2.8636 C   0  0  0  0  0  0  0  0  0  0  0  0
    2.5597   -4.3757   -2.8556 N   0  0  0  0  0  0  0  0  0  0  0  0
    1.1915    3.4066   -2.7879 C   0  0  0  0  0  0  0  0  0  0  0  0
   -1.1737    2.2920    3.9518 N   0  0  0  0  0  0  0  0  0  0  0  0
    1.1527    4.3762   -3.9070 C   0  0  0  0  0  0  0  0  0  0  0  0
    0.4852    4.0654   -5.0418 C   0  0  0  0  0  0  0  0  0  0  0  0
   -0.1769    2.7861   -5.1461 C   0  0  0  0  0  0  0  0  0  0  0  0
   -0.1362    1.9212   -4.1295 C   0  0  0  0  0  0  0  0  0  0  0  0
    1.1231   -0.3964   -1.9784 C   0  0  0  0  0  0  0  0  0  0  0  0
    0.8444   -1.4315   -1.1590 C   0  0  0  0  0  0  0  0  0  0  0  0
    1.3297   -2.8113   -1.4392 C   0  0  0  0  0  0  0  0  0  0  0  0
    2.0751   -3.0625   -2.5485 C   0  0  0  0  0  0  0  0  0  0  0  0
    2.3861   -1.9410   -3.4550 C   0  0  0  0  0  0  0  0  0  0  0  0
    1.9428   -0.7048   -3.1867 C   0  0  0  0  0  0  0  0  0  0  0  0
    0.0606    1.4881   -0.1271 C   0  0  0  0  0  0  0  0  0  0  0  0
    0.3235    0.5400    1.0102 C   0  0  0  0  0  0  0  0  0  0  0  0
   -0.0614    0.7909    2.2645 C   0  0  0  0  0  0  0  0  0  0  0  0
   -0.7751    2.0283    2.6009 C   0  0  0  0  0  0  0  0  0  0  0  0
   -1.0419    2.9108    1.6157 C   0  0  0  0  0  0  0  0  0  0  0  0
   -0.6127    2.6402    0.2023 C   0  0  0  0  0  0  0  0  0  0  0  0
    2.1042   -5.5401   -2.1591 C   0  0  0  0  0  0  0  0  0  0  0  0
    3.5309   -4.5602   -3.8890 C   0  0  0  0  0  0  0  0  0  0  0  0
   -1.9501    3.4573    4.2645 C   0  0  0  0  0  0  0  0  0  0  0  0
   -0.8140    1.3971    5.0284 C   0  0  0  0  0  0  0  0  0  0  0  0
  1  2  1  0  0  0  0
  1 10  1  0  0  0  0
  1 16  1  0  0  0  0
  2  4  2  0  0  0  0
  2  9  1  0  0  0  0
  4  6  1  0  0  0  0
  6  7  2  0  0  0  0
  7  8  1  0  0  0  0
  8  9  2  0  0  0  0
 10 11  2  0  0  0  0
 10 15  1  0  0  0  0
 11 12  1  0  0  0  0
 12 13  2  0  0  0  0
 13  3  1  0  0  0  0
 13 14  1  0  0  0  0
 14 15  2  0  0  0  0
 16 17  2  0  0  0  0
 16 21  1  0  0  0  0
 17 18  1  0  0  0  0
 18 19  2  0  0  0  0
 19  5  1  0  0  0  0
 19 20  1  0  0  0  0
 20 21  2  0  0  0  0
 22  3  1  0  0  0  0
 23  3  1  0  0  0  0
 24  5  1  0  0  0  0
 25  5  1  0  0  0  0
M  END
>  <CHROM.1>
-124.52697291,-162.49253764,-168.59444045,11.25424838,-175.74889866,0.62380061
0.45081134,-1.04093703,0.13677293,1.19447917,-0.87930370

>  <Name>
1q8n_lig

>  <RI>
0

>  <Rbt.Current_Directory>
/home/itssahil/PROJECTS/Mol_Feturizer/New_Systems/rnas/1q8n

>  <Rbt.Executable>
rbdock ($Id: //depot/dev/client3/rdock/2013.1/src/exe/rbdock.cxx#4 $)

>  <Rbt.Library>
libRbt.so (2013.1, Build901 2013/11/27)

>  <Rbt.Parameter_File>
/export/apps/rDock/src/rDock_2013.1_src/data/scripts/dock_solv.prm

>  <Rbt.Receptor>
prm/pocket_docking_3.prm

>  <SCORE>
-53.8999

>  <SCORE.INTER>
-54.4534

>  <SCORE.INTER.CONST>
1

>  <SCORE.INTER.POLAR>
0

>  <SCORE.INTER.ROT>
5

>  <SCORE.INTER.SOLV>
10.2753

>  <SCORE.INTER.VDW>
-46.6607

>  <SCORE.INTER.norm>
-2.17814

>  <SCORE.INTRA>
0.553577

>  <SCORE.INTRA.DIHEDRAL>
0.556972

>  <SCORE.INTRA.DIHEDRAL.0>
2.1627

>  <SCORE.INTRA.POLAR>
0

>  <SCORE.INTRA.POLAR.0>
0

>  <SCORE.INTRA.REPUL>
0

>  <SCORE.INTRA.REPUL.0>
0

>  <SCORE.INTRA.SOLV>
0.0252181

>  <SCORE.INTRA.SOLV.lig_0>
-5.95779

>  <SCORE.INTRA.VDW>
0.262482

>  <SCORE.INTRA.VDW.0>
3.81702

>  <SCORE.INTRA.norm>
0.0221431

>  <SCORE.RESTR>
0

>  <SCORE.RESTR.CAVITY>
0

>  <SCORE.RESTR.norm>
0

>  <SCORE.SYSTEM>
0

>  <SCORE.SYSTEM.CONST>
0

>  <SCORE.SYSTEM.DIHEDRAL>
0

>  <SCORE.SYSTEM.SOLV>
0

>  <SCORE.SYSTEM.norm>
0

>  <SCORE.heavy>
25

>  <SCORE.norm>
-2.15599

>  <RMSD>
0.639

$$$$
1q8n_lig
 OpenBabel11021811403D
libRbt.so/2013.1/901 2013/11/27
 25 27  0  0  0  0  0  0  0  0999 V2000
    0.5508    1.0334   -1.6736 C   0  0  0  0  0  0  0  0  0  0  0  0
    0.5311    2.1189   -2.8930 C   0  0  0  0  0  0  0  0  0  0  0  0
    2.5359   -4.4559   -2.8351 N   0  0  0  0  0  0  0  0  0  0  0  0
    1.2143    3.2882   -2.8639 C   0  0  0  0  0  0  0  0  0  0  0  0
   -1.1666    2.2751    3.9319 N   0  0  0  0  0  0  0  0  0  0  0  0
    1.1648    4.2490   -3.9901 C   0  0  0  0  0  0  0  0  0  0  0  0
    0.4224    3.9633   -5.0842 C   0  0  0  0  0  0  0  0  0  0  0  0
   -0.3087    2.7189   -5.1387 C   0  0  0  0  0  0  0  0  0  0  0  0
   -0.2575    1.8617   -4.1161 C   0  0  0  0  0  0  0  0  0  0  0  0
    1.0941   -0.4723   -1.9868 C   0  0  0  0  0  0  0  0  0  0  0  0
    0.8895   -1.4843   -1.1182 C   0  0  0  0  0  0  0  0  0  0  0  0
    1.3783   -2.8650   -1.3875 C   0  0  0  0  0  0  0  0  0  0  0  0
    2.0509   -3.1408   -2.5368 C   0  0  0  0  0  0  0  0  0  0  0  0
    2.2801   -2.0448   -3.4972 C   0  0  0  0  0  0  0  0  0  0  0  0
    1.8349   -0.8074   -3.2381 C   0  0  0  0  0  0  0  0  0  0  0  0
    0.0358    1.4263   -0.1475 C   0  0  0  0  0  0  0  0  0  0  0  0
    0.3854    0.5346    1.0120 C   0  0  0  0  0  0  0  0  0  0  0  0
    0.0101    0.7989    2.2664 C   0  0  0  0  0  0  0  0  0  0  0  0
   -0.7786    1.9959    2.5810 C   0  0  0  0  0  0  0  0  0  0  0  0
   -1.1245    2.8267    1.5757 C   0  0  0  0  0  0  0  0  0  0  0  0
   -0.7070    2.5407    0.1619 C   0  0  0  0  0  0  0  0  0  0  0  0
    2.0631   -5.6186   -2.1473 C   0  0  0  0  0  0  0  0  0  0  0  0
    3.5254   -4.6441   -3.8503 C   0  0  0  0  0  0  0  0  0  0  0  0
   -0.8191    1.3686    4.9883 C   0  0  0  0  0  0  0  0  0  0  0  0
   -1.9072    3.4701    4.2680 C   0  0  0  0  0  0  0  0  0  0  0  0
  1  2  1  0  0  0  0
  1 10  1  0  0  0  0
  1 16  1  0  0  0  0
  2  4  2  0  0  0  0
  2  9  1  0  0  0  0
  4  6  1  0  0  0  0
  6  7  2  0  0  0  0
  7  8  1  0  0  0  0
  8  9  2  0  0  0  0
 10 11  2  0  0  0  0
 10 15  1  0  0  0  0
 11 12  1  0  0  0  0
 12 13  2  0  0  0  0
 13  3  1  0  0  0  0
 13 14  1  0  0  0  0
 14 15  2  0  0  0  0
 16 17  2  0  0  0  0
 16 21  1  0  0  0  0
 17 18  1  0  0  0  0
 18 19  2  0  0  0  0
 19  5  1  0  0  0  0
 19 20  1  0  0  0  0
 20 21  2  0  0  0  0
 22  3  1  0  0  0  0
 23  3  1  0  0  0  0
 24  5  1  0  0  0  0
 25  5  1  0  0  0  0
M  END
>  <CHROM.1>
-120.37034980,-166.41682859,-164.57434335,16.67869057,-1.68744988,0.59950863
0.38538128,-1.05364316,0.16398426,1.19643840,-0.91644147

>  <Name>
1q8n_lig

>  <RI>
0

>  <Rbt.Current_Directory>
/home/itssahil/PROJECTS/Mol_Feturizer/New_Systems/rnas/1q8n

>  <Rbt.Executable>
rbdock ($Id: //depot/dev/client3/rdock/2013.1/src/exe/rbdock.cxx#4 $)

>  <Rbt.Library>
libRbt.so (2013.1, Build901 2013/11/27)

>  <Rbt.Parameter_File>
/export/apps/rDock/src/rDock_2013.1_src/data/scripts/dock_solv.prm

>  <Rbt.Receptor>
prm/pocket_docking_5.prm

>  <SCORE>
-53.8407

>  <SCORE.INTER>
-54.4079

>  <SCORE.INTER.CONST>
1

>  <SCORE.INTER.POLAR>
0

>  <SCORE.INTER.ROT>
5

>  <SCORE.INTER.SOLV>
10.2561

>  <SCORE.INTER.VDW>
-46.624

>  <SCORE.INTER.norm>
-2.17632

>  <SCORE.INTRA>
0.567213

>  <SCORE.INTRA.DIHEDRAL>
1.06522

>  <SCORE.INTRA.DIHEDRAL.0>
2.1627

>  <SCORE.INTRA.POLAR>
0

>  <SCORE.INTRA.POLAR.0>
0

>  <SCORE.INTRA.REPUL>
0

>  <SCORE.INTRA.REPUL.0>
0

>  <SCORE.INTRA.SOLV>
0.0225247

>  <SCORE.INTRA.SOLV.lig_0>
-5.95779

>  <SCORE.INTRA.VDW>
0.0233423

>  <SCORE.INTRA.VDW.0>
3.81702

>  <SCORE.INTRA.norm>
0.0226885

>  <SCORE.RESTR>
0

>  <SCORE.RESTR.CAVITY>
0

>  <SCORE.RESTR.norm>
0

>  <SCORE.SYSTEM>
0

>  <SCORE.SYSTEM.CONST>
0

>  <SCORE.SYSTEM.DIHEDRAL>
0

>  <SCORE.SYSTEM.SOLV>
0

>  <SCORE.SYSTEM.norm>
0

>  <SCORE.heavy>
25

>  <SCORE.norm>
-2.15363

>  <RMSD>
0.641

$$$$
1q8n_lig
 OpenBabel11021811403D
libRbt.so/2013.1/901 2013/11/27
 25 27  0  0  0  0  0  0  0  0999 V2000
    0.6128    1.1415   -1.6602 C   0  0  0  0  0  0  0  0  0  0  0  0
    0.6140    2.2496   -2.8592 C   0  0  0  0  0  0  0  0  0  0  0  0
    2.5595   -4.3430   -2.9061 N   0  0  0  0  0  0  0  0  0  0  0  0
    1.2389    3.4481   -2.7687 C   0  0  0  0  0  0  0  0  0  0  0  0
   -1.1613    2.2806    3.9494 N   0  0  0  0  0  0  0  0  0  0  0  0
    1.2107    4.4284   -3.8786 C   0  0  0  0  0  0  0  0  0  0  0  0
    0.5481    4.1316   -5.0200 C   0  0  0  0  0  0  0  0  0  0  0  0
   -0.1194    2.8564   -5.1400 C   0  0  0  0  0  0  0  0  0  0  0  0
   -0.0883    1.9817   -4.1315 C   0  0  0  0  0  0  0  0  0  0  0  0
    1.1450   -0.3631   -1.9967 C   0  0  0  0  0  0  0  0  0  0  0  0
    0.8283   -1.4099   -1.2065 C   0  0  0  0  0  0  0  0  0  0  0  0
    1.3052   -2.7903   -1.4983 C   0  0  0  0  0  0  0  0  0  0  0  0
    2.0817   -3.0298   -2.5887 C   0  0  0  0  0  0  0  0  0  0  0  0
    2.4343   -1.8954   -3.4632 C   0  0  0  0  0  0  0  0  0  0  0  0
    1.9981   -0.6590   -3.1849 C   0  0  0  0  0  0  0  0  0  0  0  0
    0.0878    1.5106   -0.1316 C   0  0  0  0  0  0  0  0  0  0  0  0
    0.3139    0.5369    0.9919 C   0  0  0  0  0  0  0  0  0  0  0  0
   -0.0754    0.7775    2.2468 C   0  0  0  0  0  0  0  0  0  0  0  0
   -0.7577    2.0285    2.5978 C   0  0  0  0  0  0  0  0  0  0  0  0
   -0.9909    2.9343    1.6253 C   0  0  0  0  0  0  0  0  0  0  0  0
   -0.5564    2.6754    0.2114 C   0  0  0  0  0  0  0  0  0  0  0  0
    3.4926   -4.5811   -3.9649 C   0  0  0  0  0  0  0  0  0  0  0  0
    2.1070   -5.4735   -2.1561 C   0  0  0  0  0  0  0  0  0  0  0  0
   -1.9067    3.4624    4.2752 C   0  0  0  0  0  0  0  0  0  0  0  0
   -0.8377    1.3575    5.0136 C   0  0  0  0  0  0  0  0  0  0  0  0
  1  2  1  0  0  0  0
  1 10  1  0  0  0  0
  1 16  1  0  0  0  0
  2  4  2  0  0  0  0
  2  9  1  0  0  0  0
  4  6  1  0  0  0  0
  6  7  2  0  0  0  0
  7  8  1  0  0  0  0
  8  9  2  0  0  0  0
 10 11  2  0  0  0  0
 10 15  1  0  0  0  0
 11 12  1  0  0  0  0
 12 13  2  0  0  0  0
 13  3  1  0  0  0  0
 13 14  1  0  0  0  0
 14 15  2  0  0  0  0
 16 17  2  0  0  0  0
 16 21  1  0  0  0  0
 17 18  1  0  0  0  0
 18 19  2  0  0  0  0
 19  5  1  0  0  0  0
 19 20  1  0  0  0  0
 20 21  2  0  0  0  0
 22  3  1  0  0  0  0
 23  3  1  0  0  0  0
 24  5  1  0  0  0  0
 25  5  1  0  0  0  0
M  END
>  <CHROM.1>
-124.67067003,-160.80275479,-169.91230971,-173.06988906,-175.82168483,0.64554097
0.47680969,-1.05139482,0.11165080,1.19715264,-0.84647263

>  <Name>
1q8n_lig

>  <RI>
0

>  <Rbt.Current_Directory>
/home/itssahil/PROJECTS/Mol_Feturizer/New_Systems/rnas/1q8n

>  <Rbt.Executable>
rbdock ($Id: //depot/dev/client3/rdock/2013.1/src/exe/rbdock.cxx#4 $)

>  <Rbt.Library>
libRbt.so (2013.1, Build901 2013/11/27)

>  <Rbt.Parameter_File>
/export/apps/rDock/src/rDock_2013.1_src/data/scripts/dock_solv.prm

>  <Rbt.Receptor>
prm/pocket_docking_5.prm

>  <SCORE>
-54.0453

>  <SCORE.INTER>
-54.549

>  <SCORE.INTER.CONST>
1

>  <SCORE.INTER.POLAR>
0

>  <SCORE.INTER.ROT>
5

>  <SCORE.INTER.SOLV>
10.3076

>  <SCORE.INTER.VDW>
-46.7352

>  <SCORE.INTER.norm>
-2.18196

>  <SCORE.INTRA>
0.503699

>  <SCORE.INTRA.DIHEDRAL>
0.253239

>  <SCORE.INTRA.DIHEDRAL.0>
2.1627

>  <SCORE.INTRA.POLAR>
0

>  <SCORE.INTRA.POLAR.0>
0

>  <SCORE.INTRA.REPUL>
0

>  <SCORE.INTRA.REPUL.0>
0

>  <SCORE.INTRA.SOLV>
0.0246901

>  <SCORE.INTRA.SOLV.lig_0>
-5.95779

>  <SCORE.INTRA.VDW>
0.364734

>  <SCORE.INTRA.VDW.0>
3.81702

>  <SCORE.INTRA.norm>
0.0201479

>  <SCORE.RESTR>
0

>  <SCORE.RESTR.CAVITY>
0

>  <SCORE.RESTR.norm>
0

>  <SCORE.SYSTEM>
0

>  <SCORE.SYSTEM.CONST>
0

>  <SCORE.SYSTEM.DIHEDRAL>
0

>  <SCORE.SYSTEM.SOLV>
0

>  <SCORE.SYSTEM.norm>
0

>  <SCORE.heavy>
25

>  <SCORE.norm>
-2.16181

>  <RMSD>
0.642

$$$$
1q8n_lig
 OpenBabel11021811403D
libRbt.so/2013.1/901 2013/11/27
 25 27  0  0  0  0  0  0  0  0999 V2000
    0.6233    1.0746   -1.7421 C   0  0  0  0  0  0  0  0  0  0  0  0
    0.6040    2.1779   -2.9454 C   0  0  0  0  0  0  0  0  0  0  0  0
    2.6207   -4.3934   -2.9800 N   0  0  0  0  0  0  0  0  0  0  0  0
    1.2450    3.3693   -2.8775 C   0  0  0  0  0  0  0  0  0  0  0  0
   -1.1331    2.2102    3.8738 N   0  0  0  0  0  0  0  0  0  0  0  0
    1.1973    4.3455   -3.9905 C   0  0  0  0  0  0  0  0  0  0  0  0
    0.4998    4.0518   -5.1117 C   0  0  0  0  0  0  0  0  0  0  0  0
   -0.1855    2.7841   -5.2076 C   0  0  0  0  0  0  0  0  0  0  0  0
   -0.1365    1.9131   -4.1966 C   0  0  0  0  0  0  0  0  0  0  0  0
    1.1692   -0.4255   -2.0764 C   0  0  0  0  0  0  0  0  0  0  0  0
    0.8251   -1.4818   -1.3107 C   0  0  0  0  0  0  0  0  0  0  0  0
    1.3140   -2.8582   -1.6010 C   0  0  0  0  0  0  0  0  0  0  0  0
    2.1301   -3.0843   -2.6650 C   0  0  0  0  0  0  0  0  0  0  0  0
    2.5132   -1.9395   -3.5127 C   0  0  0  0  0  0  0  0  0  0  0  0
    2.0656   -0.7067   -3.2360 C   0  0  0  0  0  0  0  0  0  0  0  0
    0.1053    1.4443   -0.2112 C   0  0  0  0  0  0  0  0  0  0  0  0
    0.2903    0.4492    0.9011 C   0  0  0  0  0  0  0  0  0  0  0  0
   -0.0956    0.6888    2.1573 C   0  0  0  0  0  0  0  0  0  0  0  0
   -0.7329    1.9598    2.5208 C   0  0  0  0  0  0  0  0  0  0  0  0
   -0.9282    2.8853    1.5587 C   0  0  0  0  0  0  0  0  0  0  0  0
   -0.4971    2.6278    0.1435 C   0  0  0  0  0  0  0  0  0  0  0  0
    3.6088   -4.6159   -3.9913 C   0  0  0  0  0  0  0  0  0  0  0  0
    2.1255   -5.5355   -2.2760 C   0  0  0  0  0  0  0  0  0  0  0  0
   -0.7966    1.2805    4.9135 C   0  0  0  0  0  0  0  0  0  0  0  0
   -1.8753    3.3986    4.2289 C   0  0  0  0  0  0  0  0  0  0  0  0
  1  2  1  0  0  0  0
  1 10  1  0  0  0  0
  1 16  1  0  0  0  0
  2  4  2  0  0  0  0
  2  9  1  0  0  0  0
  4  6  1  0  0  0  0
  6  7  2  0  0  0  0
  7  8  1  0  0  0  0
  8  9  2  0  0  0  0
 10 11  2  0  0  0  0
 10 15  1  0  0  0  0
 11 12  1  0  0  0  0
 12 13  2  0  0  0  0
 13  3  1  0  0  0  0
 13 14  1  0  0  0  0
 14 15  2  0  0  0  0
 16 17  2  0  0  0  0
 16 21  1  0  0  0  0
 17 18  1  0  0  0  0
 18 19  2  0  0  0  0
 19  5  1  0  0  0  0
 19 20  1  0  0  0  0
 20 21  2  0  0  0  0
 22  3  1  0  0  0  0
 23  3  1  0  0  0  0
 24  5  1  0  0  0  0
 25  5  1  0  0  0  0
M  END
>  <CHROM.1>
-122.92649471,-158.07766274,-172.86930567,-171.99604858,6.25095717,0.66537918
0.41154346,-1.13081748,3.00790807,-1.19284871,2.27077321

>  <Name>
1q8n_lig

>  <RI>
0

>  <Rbt.Current_Directory>
/home/itssahil/PROJECTS/Mol_Feturizer/New_Systems/rnas/1q8n

>  <Rbt.Executable>
rbdock ($Id: //depot/dev/client3/rdock/2013.1/src/exe/rbdock.cxx#4 $)

>  <Rbt.Library>
libRbt.so (2013.1, Build901 2013/11/27)

>  <Rbt.Parameter_File>
/export/apps/rDock/src/rDock_2013.1_src/data/scripts/dock_solv.prm

>  <Rbt.Receptor>
prm/pocket_docking_2.prm

>  <SCORE>
-53.5021

>  <SCORE.INTER>
-54.475

>  <SCORE.INTER.CONST>
1

>  <SCORE.INTER.POLAR>
0

>  <SCORE.INTER.ROT>
5

>  <SCORE.INTER.SOLV>
10.1811

>  <SCORE.INTER.VDW>
-46.6437

>  <SCORE.INTER.norm>
-2.179

>  <SCORE.INTRA>
0.42765

>  <SCORE.INTRA.DIHEDRAL>
0.398595

>  <SCORE.INTRA.DIHEDRAL.0>
2.1627

>  <SCORE.INTRA.POLAR>
0

>  <SCORE.INTRA.POLAR.0>
0

>  <SCORE.INTRA.REPUL>
0

>  <SCORE.INTRA.REPUL.0>
0

>  <SCORE.INTRA.SOLV>
0.0217863

>  <SCORE.INTRA.SOLV.lig_0>
-5.95779

>  <SCORE.INTRA.VDW>
0.217459

>  <SCORE.INTRA.VDW.0>
3.81702

>  <SCORE.INTRA.norm>
0.017106

>  <SCORE.RESTR>
0.545211

>  <SCORE.RESTR.CAVITY>
0.545211

>  <SCORE.RESTR.norm>
0.0218084

>  <SCORE.SYSTEM>
0

>  <SCORE.SYSTEM.CONST>
0

>  <SCORE.SYSTEM.DIHEDRAL>
0

>  <SCORE.SYSTEM.SOLV>
0

>  <SCORE.SYSTEM.norm>
0

>  <SCORE.heavy>
25

>  <SCORE.norm>
-2.14008

>  <RMSD>
0.644

$$$$
1q8n_lig
 OpenBabel11021811403D
libRbt.so/2013.1/901 2013/11/27
 25 27  0  0  0  0  0  0  0  0999 V2000
    0.5902    0.9983   -1.7562 C   0  0  0  0  0  0  0  0  0  0  0  0
    0.5678    2.0958   -2.9648 C   0  0  0  0  0  0  0  0  0  0  0  0
    2.6008   -4.4791   -2.9295 N   0  0  0  0  0  0  0  0  0  0  0  0
    1.2202    3.2816   -2.9098 C   0  0  0  0  0  0  0  0  0  0  0  0
   -1.1363    2.1852    3.8584 N   0  0  0  0  0  0  0  0  0  0  0  0
    1.1694    4.2527   -4.0271 C   0  0  0  0  0  0  0  0  0  0  0  0
    0.4572    3.9599   -5.1392 C   0  0  0  0  0  0  0  0  0  0  0  0
   -0.2405    2.6980   -5.2214 C   0  0  0  0  0  0  0  0  0  0  0  0
   -0.1886    1.8316   -4.2066 C   0  0  0  0  0  0  0  0  0  0  0  0
    1.1417   -0.5014   -2.0830 C   0  0  0  0  0  0  0  0  0  0  0  0
    1.7701   -0.7778   -3.2445 C   0  0  0  0  0  0  0  0  0  0  0  0
    2.2801   -2.1411   -3.5596 C   0  0  0  0  0  0  0  0  0  0  0  0
    2.1230   -3.1540   -2.6659 C   0  0  0  0  0  0  0  0  0  0  0  0
    1.4399   -2.8663   -1.3906 C   0  0  0  0  0  0  0  0  0  0  0  0
    0.9853   -1.6340   -1.1238 C   0  0  0  0  0  0  0  0  0  0  0  0
    0.0696    1.3735   -0.2275 C   0  0  0  0  0  0  0  0  0  0  0  0
    0.4828    0.5133    0.9348 C   0  0  0  0  0  0  0  0  0  0  0  0
    0.1062    0.7659    2.1913 C   0  0  0  0  0  0  0  0  0  0  0  0
   -0.7473    1.9177    2.5054 C   0  0  0  0  0  0  0  0  0  0  0  0
   -1.1516    2.7186    1.4977 C   0  0  0  0  0  0  0  0  0  0  0  0
   -0.7333    2.4455    0.0816 C   0  0  0  0  0  0  0  0  0  0  0  0
    3.5789   -4.7519   -3.9381 C   0  0  0  0  0  0  0  0  0  0  0  0
    2.1024   -5.5865   -2.1741 C   0  0  0  0  0  0  0  0  0  0  0  0
   -1.8660    3.3777    4.1808 C   0  0  0  0  0  0  0  0  0  0  0  0
   -0.8134    1.2674    4.9273 C   0  0  0  0  0  0  0  0  0  0  0  0
  1  2  1  0  0  0  0
  1 10  1  0  0  0  0
  1 16  1  0  0  0  0
  2  4  2  0  0  0  0
  2  9  1  0  0  0  0
  4  6  1  0  0  0  0
  6  7  2  0  0  0  0
  7  8  1  0  0  0  0
  8  9  2  0  0  0  0
 10 11  2  0  0  0  0
 10 15  1  0  0  0  0
 11 12  1  0  0  0  0
 12 13  2  0  0  0  0
 13  3  1  0  0  0  0
 13 14  1  0  0  0  0
 14 15  2  0  0  0  0
 16 17  2  0  0  0  0
 16 21  1  0  0  0  0
 17 18  1  0  0  0  0
 18 19  2  0  0  0  0
 19  5  1  0  0  0  0
 19 20  1  0  0  0  0
 20 21  2  0  0  0  0
 22  3  1  0  0  0  0
 23  3  1  0  0  0  0
 24  5  1  0  0  0  0
 25  5  1  0  0  0  0
M  END
>  <CHROM.1>
-121.94326453,10.95001985,-161.27749596,17.93185181,174.21167049,0.63584428
0.33882762,-1.11995413,0.16634771,1.19277771,-0.91808407

>  <Name>
1q8n_lig

>  <RI>
0

>  <Rbt.Current_Directory>
/home/itssahil/PROJECTS/Mol_Feturizer/New_Systems/rnas/1q8n

>  <Rbt.Executable>
rbdock ($Id: //depot/dev/client3/rdock/2013.1/src/exe/rbdock.cxx#4 $)

>  <Rbt.Library>
libRbt.so (2013.1, Build901 2013/11/27)

>  <Rbt.Parameter_File>
/export/apps/rDock/src/rDock_2013.1_src/data/scripts/dock_solv.prm

>  <Rbt.Receptor>
prm/pocket_docking_4.prm

>  <SCORE>
-54.1314

>  <SCORE.INTER>
-54.7025

>  <SCORE.INTER.CONST>
1

>  <SCORE.INTER.POLAR>
0

>  <SCORE.INTER.ROT>
5

>  <SCORE.INTER.SOLV>
10.1638

>  <SCORE.INTER.VDW>
-46.7896

>  <SCORE.INTER.norm>
-2.1881

>  <SCORE.INTRA>
0.571144

>  <SCORE.INTRA.DIHEDRAL>
1.34267

>  <SCORE.INTRA.DIHEDRAL.0>
2.1627

>  <SCORE.INTRA.POLAR>
0

>  <SCORE.INTRA.POLAR.0>
0

>  <SCORE.INTRA.REPUL>
0

>  <SCORE.INTRA.REPUL.0>
0

>  <SCORE.INTRA.SOLV>
0.0247685

>  <SCORE.INTRA.SOLV.lig_0>
-5.95779

>  <SCORE.INTRA.VDW>
-0.112577

>  <SCORE.INTRA.VDW.0>
3.81702

>  <SCORE.INTRA.norm>
0.0228458

>  <SCORE.RESTR>
0

>  <SCORE.RESTR.CAVITY>
0

>  <SCORE.RESTR.norm>
0

>  <SCORE.SYSTEM>
0

>  <SCORE.SYSTEM.CONST>
0

>  <SCORE.SYSTEM.DIHEDRAL>
0

>  <SCORE.SYSTEM.SOLV>
0

>  <SCORE.SYSTEM.norm>
0

>  <SCORE.heavy>
25

>  <SCORE.norm>
-2.16526

>  <RMSD>
0.644

$$$$
1q8n_lig
 OpenBabel11021811413D
libRbt.so/2013.1/901 2013/11/27
 25 27  0  0  0  0  0  0  0  0999 V2000
    0.5785    0.8703   -1.6941 C   0  0  0  0  0  0  0  0  0  0  0  0
    0.5260    2.0104   -2.8615 C   0  0  0  0  0  0  0  0  0  0  0  0
   -1.1907    2.3798    3.7844 N   0  0  0  0  0  0  0  0  0  0  0  0
   -0.0743    1.8244   -4.0615 C   0  0  0  0  0  0  0  0  0  0  0  0
    2.6112   -4.6124   -3.0059 N   0  0  0  0  0  0  0  0  0  0  0  0
   -0.0944    2.8839   -5.0964 C   0  0  0  0  0  0  0  0  0  0  0  0
    0.4975    4.0750   -4.8495 C   0  0  0  0  0  0  0  0  0  0  0  0
    1.1373    4.2967   -3.5739 C   0  0  0  0  0  0  0  0  0  0  0  0
    1.1504    3.3330   -2.6496 C   0  0  0  0  0  0  0  0  0  0  0  0
    0.0942    1.2788   -0.1911 C   0  0  0  0  0  0  0  0  0  0  0  0
    0.2904    0.4510    0.8560 C   0  0  0  0  0  0  0  0  0  0  0  0
   -0.1451    0.8075    2.2349 C   0  0  0  0  0  0  0  0  0  0  0  0
   -0.7583    1.9978    2.4726 C   0  0  0  0  0  0  0  0  0  0  0  0
   -0.9776    2.9143    1.3378 C   0  0  0  0  0  0  0  0  0  0  0  0
   -0.5809    2.5769    0.1027 C   0  0  0  0  0  0  0  0  0  0  0  0
    1.1078   -0.6703   -2.0025 C   0  0  0  0  0  0  0  0  0  0  0  0
    1.8035   -0.9758   -3.3003 C   0  0  0  0  0  0  0  0  0  0  0  0
    2.2621   -2.1926   -3.6059 C   0  0  0  0  0  0  0  0  0  0  0  0
    2.1056   -3.3138   -2.6721 C   0  0  0  0  0  0  0  0  0  0  0  0
    1.4828   -3.0950   -1.4953 C   0  0  0  0  0  0  0  0  0  0  0  0
    0.9644   -1.7311   -1.1402 C   0  0  0  0  0  0  0  0  0  0  0  0
   -1.9242    3.5847    4.0261 C   0  0  0  0  0  0  0  0  0  0  0  0
   -0.8946    1.5481    4.9095 C   0  0  0  0  0  0  0  0  0  0  0  0
    3.6470   -4.7569   -3.9880 C   0  0  0  0  0  0  0  0  0  0  0  0
    2.1015   -5.8035   -2.3647 C   0  0  0  0  0  0  0  0  0  0  0  0
  1  2  1  0  0  0  0
  1 10  1  0  0  0  0
  1 16  1  0  0  0  0
  2  4  2  0  0  0  0
  2  9  1  0  0  0  0
  4  6  1  0  0  0  0
  6  7  2  0  0  0  0
  7  8  1  0  0  0  0
  8  9  2  0  0  0  0
 10 11  2  0  0  0  0
 10 15  1  0  0  0  0
 11 12  1  0  0  0  0
 12 13  2  0  0  0  0
 13  3  1  0  0  0  0
 13 14  1  0  0  0  0
 14 15  2  0  0  0  0
 16 17  2  0  0  0  0
 16 21  1  0  0  0  0
 17 18  1  0  0  0  0
 18 19  2  0  0  0  0
 19  5  1  0  0  0  0
 19 20  1  0  0  0  0
 20 21  2  0  0  0  0
 22  3  1  0  0  0  0
 23  3  1  0  0  0  0
 24  5  1  0  0  0  0
 25  5  1  0  0  0  0
M  END
>  <CHROM.1>
-128.53554293,-170.38068670,11.98563166,-175.24898466,21.61615200,0.63203268
0.33763175,-1.10158572,3.11316470,-1.20061231,2.28777465

>  <Name>
1q8n_lig

>  <RI>
0

>  <Rbt.Current_Directory>
/home/itssahil/PROJECTS/Mol_Feturizer/New_Systems/rnas/1q8n

>  <Rbt.Executable>
rbdock ($Id: //depot/dev/client3/rdock/2013.1/src/exe/rbdock.cxx#4 $)

>  <Rbt.Library>
libRbt.so (2013.1, Build901 2013/11/27)

>  <Rbt.Parameter_File>
/export/apps/rDock/src/rDock_2013.1_src/data/scripts/dock_solv.prm

>  <Rbt.Receptor>
prm/pocket_docking_7.prm

>  <SCORE>
-51.9483

>  <SCORE.INTER>
-52.5605

>  <SCORE.INTER.CONST>
1

>  <SCORE.INTER.POLAR>
0

>  <SCORE.INTER.ROT>
5

>  <SCORE.INTER.SOLV>
10.4446

>  <SCORE.INTER.VDW>
-45.4552

>  <SCORE.INTER.norm>
-2.10242

>  <SCORE.INTRA>
0.6122

>  <SCORE.INTRA.DIHEDRAL>
1.82067

>  <SCORE.INTRA.DIHEDRAL.0>
2.1627

>  <SCORE.INTRA.POLAR>
0

>  <SCORE.INTRA.POLAR.0>
0

>  <SCORE.INTRA.REPUL>
0

>  <SCORE.INTRA.REPUL.0>
0

>  <SCORE.INTRA.SOLV>
0.0299323

>  <SCORE.INTRA.SOLV.lig_0>
-5.95779

>  <SCORE.INTRA.VDW>
-0.313104

>  <SCORE.INTRA.VDW.0>
3.81702

>  <SCORE.INTRA.norm>
0.024488

>  <SCORE.RESTR>
0

>  <SCORE.RESTR.CAVITY>
0

>  <SCORE.RESTR.norm>
0

>  <SCORE.SYSTEM>
0

>  <SCORE.SYSTEM.CONST>
0

>  <SCORE.SYSTEM.DIHEDRAL>
0

>  <SCORE.SYSTEM.SOLV>
0

>  <SCORE.SYSTEM.norm>
0

>  <SCORE.heavy>
25

>  <SCORE.norm>
-2.07793

>  <RMSD>
0.645

$$$$
1q8n_lig
 OpenBabel11021811403D
libRbt.so/2013.1/901 2013/11/27
 25 27  0  0  0  0  0  0  0  0999 V2000
    0.5985    1.1391   -1.6595 C   0  0  0  0  0  0  0  0  0  0  0  0
    0.6022    2.2503   -2.8555 C   0  0  0  0  0  0  0  0  0  0  0  0
    2.5321   -4.3468   -2.9198 N   0  0  0  0  0  0  0  0  0  0  0  0
    1.2312    3.4464   -2.7626 C   0  0  0  0  0  0  0  0  0  0  0  0
   -1.1711    2.2687    3.9535 N   0  0  0  0  0  0  0  0  0  0  0  0
    1.2052    4.4297   -3.8700 C   0  0  0  0  0  0  0  0  0  0  0  0
    0.5404    4.1381   -5.0115 C   0  0  0  0  0  0  0  0  0  0  0  0
   -0.1315    2.8655   -5.1341 C   0  0  0  0  0  0  0  0  0  0  0  0
   -0.1023    1.9880   -4.1279 C   0  0  0  0  0  0  0  0  0  0  0  0
    1.1271   -0.3659   -1.9999 C   0  0  0  0  0  0  0  0  0  0  0  0
    0.8051   -1.4146   -1.2144 C   0  0  0  0  0  0  0  0  0  0  0  0
    1.2787   -2.7953   -1.5098 C   0  0  0  0  0  0  0  0  0  0  0  0
    2.0574   -3.0333   -2.5990 C   0  0  0  0  0  0  0  0  0  0  0  0
    2.4158   -1.8968   -3.4684 C   0  0  0  0  0  0  0  0  0  0  0  0
    1.9826   -0.6601   -3.1868 C   0  0  0  0  0  0  0  0  0  0  0  0
    0.0746    1.5055   -0.1298 C   0  0  0  0  0  0  0  0  0  0  0  0
    0.3049    0.5314    0.9925 C   0  0  0  0  0  0  0  0  0  0  0  0
   -0.0834    0.7699    2.2482 C   0  0  0  0  0  0  0  0  0  0  0  0
   -0.7686    2.0188    2.6011 C   0  0  0  0  0  0  0  0  0  0  0  0
   -1.0055    2.9248    1.6298 C   0  0  0  0  0  0  0  0  0  0  0  0
   -0.5723    2.6683    0.2150 C   0  0  0  0  0  0  0  0  0  0  0  0
    3.4483   -4.5869   -3.9929 C   0  0  0  0  0  0  0  0  0  0  0  0
    2.0937   -5.4755   -2.1588 C   0  0  0  0  0  0  0  0  0  0  0  0
   -0.8440    1.3343    4.9919 C   0  0  0  0  0  0  0  0  0  0  0  0
   -1.9063    3.4613    4.3092 C   0  0  0  0  0  0  0  0  0  0  0  0
  1  2  1  0  0  0  0
  1 10  1  0  0  0  0
  1 16  1  0  0  0  0
  2  4  2  0  0  0  0
  2  9  1  0  0  0  0
  4  6  1  0  0  0  0
  6  7  2  0  0  0  0
  7  8  1  0  0  0  0
  8  9  2  0  0  0  0
 10 11  2  0  0  0  0
 10 15  1  0  0  0  0
 11 12  1  0  0  0  0
 12 13  2  0  0  0  0
 13  3  1  0  0  0  0
 13 14  1  0  0  0  0
 14 15  2  0  0  0  0
 16 17  2  0  0  0  0
 16 21  1  0  0  0  0
 17 18  1  0  0  0  0
 18 19  2  0  0  0  0
 19  5  1  0  0  0  0
 19 20  1  0  0  0  0
 20 21  2  0  0  0  0
 22  3  1  0  0  0  0
 23  3  1  0  0  0  0
 24  5  1  0  0  0  0
 25  5  1  0  0  0  0
M  END
>  <CHROM.1>
-124.59472713,-160.62470406,-169.59715024,-174.25766040,3.43841324,0.63066614
0.47303880,-1.05212929,0.10865673,1.19934186,-0.84142262

>  <Name>
1q8n_lig

>  <RI>
0

>  <Rbt.Current_Directory>
/home/itssahil/PROJECTS/Mol_Feturizer/New_Systems/rnas/1q8n

>  <Rbt.Executable>
rbdock ($Id: //depot/dev/client3/rdock/2013.1/src/exe/rbdock.cxx#4 $)

>  <Rbt.Library>
libRbt.so (2013.1, Build901 2013/11/27)

>  <Rbt.Parameter_File>
/export/apps/rDock/src/rDock_2013.1_src/data/scripts/dock_solv.prm

>  <Rbt.Receptor>
prm/pocket_docking_4.prm

>  <SCORE>
-53.9617

>  <SCORE.INTER>
-54.3869

>  <SCORE.INTER.CONST>
1

>  <SCORE.INTER.POLAR>
0

>  <SCORE.INTER.ROT>
5

>  <SCORE.INTER.SOLV>
10.3075

>  <SCORE.INTER.VDW>
-46.6271

>  <SCORE.INTER.norm>
-2.17548

>  <SCORE.INTRA>
0.42526

>  <SCORE.INTRA.DIHEDRAL>
0.173163

>  <SCORE.INTRA.DIHEDRAL.0>
2.1627

>  <SCORE.INTRA.POLAR>
0

>  <SCORE.INTRA.POLAR.0>
0

>  <SCORE.INTRA.REPUL>
0

>  <SCORE.INTRA.REPUL.0>
0

>  <SCORE.INTRA.SOLV>
0.0243205

>  <SCORE.INTRA.SOLV.lig_0>
-5.95779

>  <SCORE.INTRA.VDW>
0.326518

>  <SCORE.INTRA.VDW.0>
3.81702

>  <SCORE.INTRA.norm>
0.0170104

>  <SCORE.RESTR>
0

>  <SCORE.RESTR.CAVITY>
0

>  <SCORE.RESTR.norm>
0

>  <SCORE.SYSTEM>
0

>  <SCORE.SYSTEM.CONST>
0

>  <SCORE.SYSTEM.DIHEDRAL>
0

>  <SCORE.SYSTEM.SOLV>
0

>  <SCORE.SYSTEM.norm>
0

>  <SCORE.heavy>
25

>  <SCORE.norm>
-2.15847

>  <RMSD>
0.647

$$$$
1q8n_lig
 OpenBabel11021811413D
libRbt.so/2013.1/901 2013/11/27
 25 27  0  0  0  0  0  0  0  0999 V2000
    0.5855    0.8658   -1.7160 C   0  0  0  0  0  0  0  0  0  0  0  0
    0.5364    2.0137   -2.8760 C   0  0  0  0  0  0  0  0  0  0  0  0
   -1.2070    2.3365    3.7653 N   0  0  0  0  0  0  0  0  0  0  0  0
   -0.0735    1.8409   -4.0731 C   0  0  0  0  0  0  0  0  0  0  0  0
    2.6326   -4.6051   -3.0546 N   0  0  0  0  0  0  0  0  0  0  0  0
   -0.0902    2.9070   -5.1013 C   0  0  0  0  0  0  0  0  0  0  0  0
    0.5148    4.0907   -4.8510 C   0  0  0  0  0  0  0  0  0  0  0  0
    1.1652    4.2983   -3.5783 C   0  0  0  0  0  0  0  0  0  0  0  0
    1.1750    3.3288   -2.6601 C   0  0  0  0  0  0  0  0  0  0  0  0
    0.0946    1.2637   -0.2124 C   0  0  0  0  0  0  0  0  0  0  0  0
    0.2311    0.4038    0.8183 C   0  0  0  0  0  0  0  0  0  0  0  0
   -0.2114    0.7500    2.1975 C   0  0  0  0  0  0  0  0  0  0  0  0
   -0.7700    1.9634    2.4525 C   0  0  0  0  0  0  0  0  0  0  0  0
   -0.9238    2.9150    1.3359 C   0  0  0  0  0  0  0  0  0  0  0  0
   -0.5217    2.5864    0.1002 C   0  0  0  0  0  0  0  0  0  0  0  0
    1.1181   -0.6720   -2.0325 C   0  0  0  0  0  0  0  0  0  0  0  0
    1.8315   -0.9651   -3.3236 C   0  0  0  0  0  0  0  0  0  0  0  0
    2.2935   -2.1791   -3.6351 C   0  0  0  0  0  0  0  0  0  0  0  0
    2.1233   -3.3095   -2.7148 C   0  0  0  0  0  0  0  0  0  0  0  0
    1.4844   -3.1020   -1.5447 C   0  0  0  0  0  0  0  0  0  0  0  0
    0.9620   -1.7414   -1.1831 C   0  0  0  0  0  0  0  0  0  0  0  0
   -0.9301    1.5358    4.9189 C   0  0  0  0  0  0  0  0  0  0  0  0
   -1.9461    3.5452    3.9605 C   0  0  0  0  0  0  0  0  0  0  0  0
    2.1002   -5.7808   -2.4280 C   0  0  0  0  0  0  0  0  0  0  0  0
    3.6837   -4.7648   -4.0340 C   0  0  0  0  0  0  0  0  0  0  0  0
  1  2  1  0  0  0  0
  1 10  1  0  0  0  0
  1 16  1  0  0  0  0
  2  4  2  0  0  0  0
  2  9  1  0  0  0  0
  4  6  1  0  0  0  0
  6  7  2  0  0  0  0
  7  8  1  0  0  0  0
  8  9  2  0  0  0  0
 10 11  2  0  0  0  0
 10 15  1  0  0  0  0
 11 12  1  0  0  0  0
 12 13  2  0  0  0  0
 13  3  1  0  0  0  0
 13 14  1  0  0  0  0
 14 15  2  0  0  0  0
 16 17  2  0  0  0  0
 16 21  1  0  0  0  0
 17 18  1  0  0  0  0
 18 19  2  0  0  0  0
 19  5  1  0  0  0  0
 19 20  1  0  0  0  0
 20 21  2  0  0  0  0
 22  3  1  0  0  0  0
 23  3  1  0  0  0  0
 24  5  1  0  0  0  0
 25  5  1  0  0  0  0
M  END
>  <CHROM.1>
-127.65607329,-173.50174564,12.58804512,8.27511792,-158.48203650,0.63726008
0.33128221,-1.12765353,3.12573582,-1.19726051,2.30603353

>  <Name>
1q8n_lig

>  <RI>
0

>  <Rbt.Current_Directory>
/home/itssahil/PROJECTS/Mol_Feturizer/New_Systems/rnas/1q8n

>  <Rbt.Executable>
rbdock ($Id: //depot/dev/client3/rdock/2013.1/src/exe/rbdock.cxx#4 $)

>  <Rbt.Library>
libRbt.so (2013.1, Build901 2013/11/27)

>  <Rbt.Parameter_File>
/export/apps/rDock/src/rDock_2013.1_src/data/scripts/dock_solv.prm

>  <Rbt.Receptor>
prm/pocket_docking_7.prm

>  <SCORE>
-52.1166

>  <SCORE.INTER>
-52.818

>  <SCORE.INTER.CONST>
1

>  <SCORE.INTER.POLAR>
0

>  <SCORE.INTER.ROT>
5

>  <SCORE.INTER.SOLV>
10.3763

>  <SCORE.INTER.VDW>
-45.6041

>  <SCORE.INTER.norm>
-2.11272

>  <SCORE.INTRA>
0.701366

>  <SCORE.INTRA.DIHEDRAL>
1.98295

>  <SCORE.INTRA.DIHEDRAL.0>
2.1627

>  <SCORE.INTRA.POLAR>
0

>  <SCORE.INTRA.POLAR.0>
0

>  <SCORE.INTRA.REPUL>
0

>  <SCORE.INTRA.REPUL.0>
0

>  <SCORE.INTRA.SOLV>
0.0298038

>  <SCORE.INTRA.SOLV.lig_0>
-5.95779

>  <SCORE.INTRA.VDW>
-0.30501

>  <SCORE.INTRA.VDW.0>
3.81702

>  <SCORE.INTRA.norm>
0.0280546

>  <SCORE.RESTR>
0

>  <SCORE.RESTR.CAVITY>
0

>  <SCORE.RESTR.norm>
0

>  <SCORE.SYSTEM>
0

>  <SCORE.SYSTEM.CONST>
0

>  <SCORE.SYSTEM.DIHEDRAL>
0

>  <SCORE.SYSTEM.SOLV>
0

>  <SCORE.SYSTEM.norm>
0

>  <SCORE.heavy>
25

>  <SCORE.norm>
-2.08466

>  <RMSD>
0.649

$$$$
1q8n_lig
 OpenBabel11021811403D
libRbt.so/2013.1/901 2013/11/27
 25 27  0  0  0  0  0  0  0  0999 V2000
    0.5627    0.9974   -1.6942 C   0  0  0  0  0  0  0  0  0  0  0  0
    0.5629    2.0903   -2.9072 C   0  0  0  0  0  0  0  0  0  0  0  0
    2.4886   -4.5165   -2.8382 N   0  0  0  0  0  0  0  0  0  0  0  0
    1.2033    3.2820   -2.8394 C   0  0  0  0  0  0  0  0  0  0  0  0
   -1.1705    2.2302    3.9084 N   0  0  0  0  0  0  0  0  0  0  0  0
    1.1737    4.2486   -3.9614 C   0  0  0  0  0  0  0  0  0  0  0  0
    0.4938    3.9455   -5.0909 C   0  0  0  0  0  0  0  0  0  0  0  0
   -0.1905    2.6773   -5.1867 C   0  0  0  0  0  0  0  0  0  0  0  0
   -0.1580    1.8150   -4.1676 C   0  0  0  0  0  0  0  0  0  0  0  0
    1.0909   -0.5124   -2.0130 C   0  0  0  0  0  0  0  0  0  0  0  0
    1.6968   -0.8092   -3.1814 C   0  0  0  0  0  0  0  0  0  0  0  0
    2.1854   -2.1820   -3.4894 C   0  0  0  0  0  0  0  0  0  0  0  0
    2.0310   -3.1829   -2.5819 C   0  0  0  0  0  0  0  0  0  0  0  0
    1.3723   -2.8729   -1.2989 C   0  0  0  0  0  0  0  0  0  0  0  0
    0.9368   -1.6323   -1.0386 C   0  0  0  0  0  0  0  0  0  0  0  0
    0.0425    1.3870   -0.1690 C   0  0  0  0  0  0  0  0  0  0  0  0
    0.4083    0.5057    0.9933 C   0  0  0  0  0  0  0  0  0  0  0  0
    0.0297    0.7682    2.2471 C   0  0  0  0  0  0  0  0  0  0  0  0
   -0.7791    1.9526    2.5581 C   0  0  0  0  0  0  0  0  0  0  0  0
   -1.1401    2.7737    1.5502 C   0  0  0  0  0  0  0  0  0  0  0  0
   -0.7190    2.4897    0.1370 C   0  0  0  0  0  0  0  0  0  0  0  0
    2.0268   -5.6410   -2.0826 C   0  0  0  0  0  0  0  0  0  0  0  0
    3.4382   -4.7632   -3.8787 C   0  0  0  0  0  0  0  0  0  0  0  0
   -0.8215    1.3248    4.9652 C   0  0  0  0  0  0  0  0  0  0  0  0
   -1.9164    3.4222    4.2434 C   0  0  0  0  0  0  0  0  0  0  0  0
  1  2  1  0  0  0  0
  1 10  1  0  0  0  0
  1 16  1  0  0  0  0
  2  4  2  0  0  0  0
  2  9  1  0  0  0  0
  4  6  1  0  0  0  0
  6  7  2  0  0  0  0
  7  8  1  0  0  0  0
  8  9  2  0  0  0  0
 10 11  2  0  0  0  0
 10 15  1  0  0  0  0
 11 12  1  0  0  0  0
 12 13  2  0  0  0  0
 13  3  1  0  0  0  0
 13 14  1  0  0  0  0
 14 15  2  0  0  0  0
 16 17  2  0  0  0  0
 16 21  1  0  0  0  0
 17 18  1  0  0  0  0
 18 19  2  0  0  0  0
 19  5  1  0  0  0  0
 19 20  1  0  0  0  0
 20 21  2  0  0  0  0
 22  3  1  0  0  0  0
 23  3  1  0  0  0  0
 24  5  1  0  0  0  0
 25  5  1  0  0  0  0
M  END
>  <CHROM.1>
-123.87780283,9.69496385,-162.80961493,-162.60777757,-2.49313313,0.59654012
0.33935387,-1.05720481,0.13334654,1.20298049,-0.88986573

>  <Name>
1q8n_lig

>  <RI>
0

>  <Rbt.Current_Directory>
/home/itssahil/PROJECTS/Mol_Feturizer/New_Systems/rnas/1q8n

>  <Rbt.Executable>
rbdock ($Id: //depot/dev/client3/rdock/2013.1/src/exe/rbdock.cxx#4 $)

>  <Rbt.Library>
libRbt.so (2013.1, Build901 2013/11/27)

>  <Rbt.Parameter_File>
/export/apps/rDock/src/rDock_2013.1_src/data/scripts/dock_solv.prm

>  <Rbt.Receptor>
prm/blind_docking_100.prm

>  <SCORE>
-54.099

>  <SCORE.INTER>
-54.6628

>  <SCORE.INTER.CONST>
1

>  <SCORE.INTER.POLAR>
0

>  <SCORE.INTER.ROT>
5

>  <SCORE.INTER.SOLV>
10.1696

>  <SCORE.INTER.VDW>
-46.7651

>  <SCORE.INTER.norm>
-2.18651

>  <SCORE.INTRA>
0.563771

>  <SCORE.INTRA.DIHEDRAL>
1.16675

>  <SCORE.INTRA.DIHEDRAL.0>
2.1627

>  <SCORE.INTRA.POLAR>
0

>  <SCORE.INTRA.POLAR.0>
0

>  <SCORE.INTRA.REPUL>
0

>  <SCORE.INTRA.REPUL.0>
0

>  <SCORE.INTRA.SOLV>
0.0278771

>  <SCORE.INTRA.SOLV.lig_0>
-5.95779

>  <SCORE.INTRA.VDW>
-0.0335409

>  <SCORE.INTRA.VDW.0>
3.81702

>  <SCORE.INTRA.norm>
0.0225508

>  <SCORE.RESTR>
0

>  <SCORE.RESTR.CAVITY>
0

>  <SCORE.RESTR.norm>
0

>  <SCORE.SYSTEM>
0

>  <SCORE.SYSTEM.CONST>
0

>  <SCORE.SYSTEM.DIHEDRAL>
0

>  <SCORE.SYSTEM.SOLV>
0

>  <SCORE.SYSTEM.norm>
0

>  <SCORE.heavy>
25

>  <SCORE.norm>
-2.16396

>  <RMSD>
0.650

$$$$
1q8n_lig
 OpenBabel11021811403D
libRbt.so/2013.1/901 2013/11/27
 25 27  0  0  0  0  0  0  0  0999 V2000
    0.5282    0.8373   -1.6992 C   0  0  0  0  0  0  0  0  0  0  0  0
    0.4962    1.9804   -2.8645 C   0  0  0  0  0  0  0  0  0  0  0  0
   -1.2565    2.3556    3.7717 N   0  0  0  0  0  0  0  0  0  0  0  0
   -0.0950    1.8023   -4.0702 C   0  0  0  0  0  0  0  0  0  0  0  0
    2.2959   -4.8186   -2.5930 N   0  0  0  0  0  0  0  0  0  0  0  0
   -0.0965    2.8641   -5.1028 C   0  0  0  0  0  0  0  0  0  0  0  0
    0.5037    4.0494   -4.8480 C   0  0  0  0  0  0  0  0  0  0  0  0
    1.1341    4.2627   -3.5663 C   0  0  0  0  0  0  0  0  0  0  0  0
    1.1305    3.2969   -2.6441 C   0  0  0  0  0  0  0  0  0  0  0  0
    0.0413    1.2488   -0.1980 C   0  0  0  0  0  0  0  0  0  0  0  0
    0.5344    0.6259    0.8926 C   0  0  0  0  0  0  0  0  0  0  0  0
    0.1014    0.9885    2.2706 C   0  0  0  0  0  0  0  0  0  0  0  0
   -0.8148    1.9749    2.4627 C   0  0  0  0  0  0  0  0  0  0  0  0
   -1.3613    2.6666    1.2799 C   0  0  0  0  0  0  0  0  0  0  0  0
   -0.9619    2.3264    0.0465 C   0  0  0  0  0  0  0  0  0  0  0  0
    1.0397   -0.7092   -2.0081 C   0  0  0  0  0  0  0  0  0  0  0  0
    1.0486   -1.7284   -0.9023 C   0  0  0  0  0  0  0  0  0  0  0  0
    1.4393   -2.9924   -1.0868 C   0  0  0  0  0  0  0  0  0  0  0  0
    1.8892   -3.4577   -2.4040 C   0  0  0  0  0  0  0  0  0  0  0  0
    1.9065   -2.5813   -3.4297 C   0  0  0  0  0  0  0  0  0  0  0  0
    1.4681   -1.1584   -3.2345 C   0  0  0  0  0  0  0  0  0  0  0  0
   -2.0161    3.5460    4.0055 C   0  0  0  0  0  0  0  0  0  0  0  0
   -0.9436    1.5375    4.9022 C   0  0  0  0  0  0  0  0  0  0  0  0
    3.1824   -5.1684   -3.6654 C   0  0  0  0  0  0  0  0  0  0  0  0
    1.8343   -5.8687   -1.7133 C   0  0  0  0  0  0  0  0  0  0  0  0
  1  2  1  0  0  0  0
  1 10  1  0  0  0  0
  1 16  1  0  0  0  0
  2  4  2  0  0  0  0
  2  9  1  0  0  0  0
  4  6  1  0  0  0  0
  6  7  2  0  0  0  0
  7  8  1  0  0  0  0
  8  9  2  0  0  0  0
 10 11  2  0  0  0  0
 10 15  1  0  0  0  0
 11 12  1  0  0  0  0
 12 13  2  0  0  0  0
 13  3  1  0  0  0  0
 13 14  1  0  0  0  0
 14 15  2  0  0  0  0
 16 17  2  0  0  0  0
 16 21  1  0  0  0  0
 17 18  1  0  0  0  0
 18 19  2  0  0  0  0
 19  5  1  0  0  0  0
 19 20  1  0  0  0  0
 20 21  2  0  0  0  0
 22  3  1  0  0  0  0
 23  3  1  0  0  0  0
 24  5  1  0  0  0  0
 25  5  1  0  0  0  0
M  END
>  <CHROM.1>
-128.83304448,-151.46647680,-179.87242123,167.84049868,-156.36988104,0.52081658
0.26359574,-0.99962504,-0.03977240,1.21628394,-0.84452949

>  <Name>
1q8n_lig

>  <RI>
0

>  <Rbt.Current_Directory>
/home/itssahil/PROJECTS/Mol_Feturizer/New_Systems/rnas/1q8n

>  <Rbt.Executable>
rbdock ($Id: //depot/dev/client3/rdock/2013.1/src/exe/rbdock.cxx#4 $)

>  <Rbt.Library>
libRbt.so (2013.1, Build901 2013/11/27)

>  <Rbt.Parameter_File>
/export/apps/rDock/src/rDock_2013.1_src/data/scripts/dock_solv.prm

>  <Rbt.Receptor>
prm/pocket_docking_4.prm

>  <SCORE>
-51.2157

>  <SCORE.INTER>
-51.9564

>  <SCORE.INTER.CONST>
1

>  <SCORE.INTER.POLAR>
0

>  <SCORE.INTER.ROT>
5

>  <SCORE.INTER.SOLV>
10.6963

>  <SCORE.INTER.VDW>
-45.1364

>  <SCORE.INTER.norm>
-2.07826

>  <SCORE.INTRA>
0.740667

>  <SCORE.INTRA.DIHEDRAL>
2.62094

>  <SCORE.INTRA.DIHEDRAL.0>
2.1627

>  <SCORE.INTRA.POLAR>
0

>  <SCORE.INTRA.POLAR.0>
0

>  <SCORE.INTRA.REPUL>
0

>  <SCORE.INTRA.REPUL.0>
0

>  <SCORE.INTRA.SOLV>
0.0236237

>  <SCORE.INTRA.SOLV.lig_0>
-5.95779

>  <SCORE.INTRA.VDW>
-0.581617

>  <SCORE.INTRA.VDW.0>
3.81702

>  <SCORE.INTRA.norm>
0.0296267

>  <SCORE.RESTR>
0

>  <SCORE.RESTR.CAVITY>
0

>  <SCORE.RESTR.norm>
0

>  <SCORE.SYSTEM>
0

>  <SCORE.SYSTEM.CONST>
0

>  <SCORE.SYSTEM.DIHEDRAL>
0

>  <SCORE.SYSTEM.SOLV>
0

>  <SCORE.SYSTEM.norm>
0

>  <SCORE.heavy>
25

>  <SCORE.norm>
-2.04863

>  <RMSD>
0.654

$$$$
1q8n_lig
 OpenBabel11021811403D
libRbt.so/2013.1/901 2013/11/27
 25 27  0  0  0  0  0  0  0  0999 V2000
    0.5750    0.8532   -1.6999 C   0  0  0  0  0  0  0  0  0  0  0  0
    0.4864    1.9603   -2.8965 C   0  0  0  0  0  0  0  0  0  0  0  0
    2.5930   -4.5905   -3.0098 N   0  0  0  0  0  0  0  0  0  0  0  0
   -0.2218    1.7742   -4.0361 C   0  0  0  0  0  0  0  0  0  0  0  0
   -1.1986    2.3346    3.8293 N   0  0  0  0  0  0  0  0  0  0  0  0
   -0.2713    2.8029   -5.1007 C   0  0  0  0  0  0  0  0  0  0  0  0
    0.4030    3.9650   -4.9434 C   0  0  0  0  0  0  0  0  0  0  0  0
    1.1590    4.1866   -3.7330 C   0  0  0  0  0  0  0  0  0  0  0  0
    1.1974    3.2507   -2.7812 C   0  0  0  0  0  0  0  0  0  0  0  0
    1.1285   -0.6372   -2.0641 C   0  0  0  0  0  0  0  0  0  0  0  0
    1.7495   -0.8857   -3.2359 C   0  0  0  0  0  0  0  0  0  0  0  0
    2.2611   -2.2399   -3.5851 C   0  0  0  0  0  0  0  0  0  0  0  0
    2.1133   -3.2731   -2.7133 C   0  0  0  0  0  0  0  0  0  0  0  0
    1.4383   -3.0162   -1.4270 C   0  0  0  0  0  0  0  0  0  0  0  0
    0.9821   -1.7914   -1.1295 C   0  0  0  0  0  0  0  0  0  0  0  0
    0.1187    1.2093   -0.1464 C   0  0  0  0  0  0  0  0  0  0  0  0
   -0.5669    2.5145    0.1507 C   0  0  0  0  0  0  0  0  0  0  0  0
   -0.9681    2.8578    1.3776 C   0  0  0  0  0  0  0  0  0  0  0  0
   -0.7544    1.9607    2.5193 C   0  0  0  0  0  0  0  0  0  0  0  0
   -0.1379    0.7792    2.3085 C   0  0  0  0  0  0  0  0  0  0  0  0
    0.3161    0.3819    0.9333 C   0  0  0  0  0  0  0  0  0  0  0  0
    2.0694   -5.7569   -2.3664 C   0  0  0  0  0  0  0  0  0  0  0  0
    3.6290   -4.7774   -3.9778 C   0  0  0  0  0  0  0  0  0  0  0  0
   -1.9396    3.5475    4.0251 C   0  0  0  0  0  0  0  0  0  0  0  0
   -0.9212    1.5058    4.9806 C   0  0  0  0  0  0  0  0  0  0  0  0
  1  2  1  0  0  0  0
  1 10  1  0  0  0  0
  1 16  1  0  0  0  0
  2  4  2  0  0  0  0
  2  9  1  0  0  0  0
  4  6  1  0  0  0  0
  6  7  2  0  0  0  0
  7  8  1  0  0  0  0
  8  9  2  0  0  0  0
 10 11  2  0  0  0  0
 10 15  1  0  0  0  0
 11 12  1  0  0  0  0
 12 13  2  0  0  0  0
 13  3  1  0  0  0  0
 13 14  1  0  0  0  0
 14 15  2  0  0  0  0
 16 17  2  0  0  0  0
 16 21  1  0  0  0  0
 17 18  1  0  0  0  0
 18 19  2  0  0  0  0
 19  5  1  0  0  0  0
 19 20  1  0  0  0  0
 20 21  2  0  0  0  0
 22  3  1  0  0  0  0
 23  3  1  0  0  0  0
 24  5  1  0  0  0  0
 25  5  1  0  0  0  0
M  END
>  <CHROM.1>
57.19973379,13.28730016,8.39473404,-157.85303507,4.34383514,0.61241630,0.30733491
-1.09663181,0.09348254,1.19939370,-0.89372497

>  <Name>
1q8n_lig

>  <RI>
0

>  <Rbt.Current_Directory>
/home/itssahil/PROJECTS/Mol_Feturizer/New_Systems/rnas/1q8n

>  <Rbt.Executable>
rbdock ($Id: //depot/dev/client3/rdock/2013.1/src/exe/rbdock.cxx#4 $)

>  <Rbt.Library>
libRbt.so (2013.1, Build901 2013/11/27)

>  <Rbt.Parameter_File>
/export/apps/rDock/src/rDock_2013.1_src/data/scripts/dock_solv.prm

>  <Rbt.Receptor>
prm/blind_docking_20.prm

>  <SCORE>
-53.3288

>  <SCORE.INTER>
-53.8612

>  <SCORE.INTER.CONST>
1

>  <SCORE.INTER.POLAR>
0

>  <SCORE.INTER.ROT>
5

>  <SCORE.INTER.SOLV>
10.2734

>  <SCORE.INTER.VDW>
-46.2653

>  <SCORE.INTER.norm>
-2.15445

>  <SCORE.INTRA>
0.532453

>  <SCORE.INTRA.DIHEDRAL>
1.88905

>  <SCORE.INTRA.DIHEDRAL.0>
2.1627

>  <SCORE.INTRA.POLAR>
0

>  <SCORE.INTRA.POLAR.0>
0

>  <SCORE.INTRA.REPUL>
0

>  <SCORE.INTRA.REPUL.0>
0

>  <SCORE.INTRA.SOLV>
0.0217002

>  <SCORE.INTRA.SOLV.lig_0>
-5.95779

>  <SCORE.INTRA.VDW>
-0.422923

>  <SCORE.INTRA.VDW.0>
3.81702

>  <SCORE.INTRA.norm>
0.0212981

>  <SCORE.RESTR>
0

>  <SCORE.RESTR.CAVITY>
0

>  <SCORE.RESTR.norm>
0

>  <SCORE.SYSTEM>
0

>  <SCORE.SYSTEM.CONST>
0

>  <SCORE.SYSTEM.DIHEDRAL>
0

>  <SCORE.SYSTEM.SOLV>
0

>  <SCORE.SYSTEM.norm>
0

>  <SCORE.heavy>
25

>  <SCORE.norm>
-2.13315

>  <RMSD>
0.660

$$$$
1q8n_lig
 OpenBabel11021811403D
libRbt.so/2013.1/901 2013/11/27
 25 27  0  0  0  0  0  0  0  0999 V2000
    0.5811    0.8653   -1.7146 C   0  0  0  0  0  0  0  0  0  0  0  0
    0.5278    2.0051   -2.8823 C   0  0  0  0  0  0  0  0  0  0  0  0
   -1.1801    2.3388    3.7762 N   0  0  0  0  0  0  0  0  0  0  0  0
   -0.0976    1.8289   -4.0709 C   0  0  0  0  0  0  0  0  0  0  0  0
    2.6139   -4.6176   -3.0253 N   0  0  0  0  0  0  0  0  0  0  0  0
   -0.1175    2.8876   -5.1066 C   0  0  0  0  0  0  0  0  0  0  0  0
    0.5002    4.0680   -4.8721 C   0  0  0  0  0  0  0  0  0  0  0  0
    1.1672    4.2793   -3.6086 C   0  0  0  0  0  0  0  0  0  0  0  0
    1.1798    3.3164   -2.6836 C   0  0  0  0  0  0  0  0  0  0  0  0
    0.0980    1.2743   -0.2114 C   0  0  0  0  0  0  0  0  0  0  0  0
   -0.4772    2.4691    0.0375 C   0  0  0  0  0  0  0  0  0  0  0  0
   -0.9243    2.8593    1.4034 C   0  0  0  0  0  0  0  0  0  0  0  0
   -0.7619    2.0030    2.4473 C   0  0  0  0  0  0  0  0  0  0  0  0
   -0.1365    0.6920    2.1901 C   0  0  0  0  0  0  0  0  0  0  0  0
    0.2619    0.3575    0.9547 C   0  0  0  0  0  0  0  0  0  0  0  0
    1.1100   -0.6754   -2.0230 C   0  0  0  0  0  0  0  0  0  0  0  0
    1.8141   -0.9790   -3.3167 C   0  0  0  0  0  0  0  0  0  0  0  0
    2.2729   -2.1958   -3.6220 C   0  0  0  0  0  0  0  0  0  0  0  0
    2.1082   -3.3190   -2.6919 C   0  0  0  0  0  0  0  0  0  0  0  0
    1.4776   -3.1019   -1.5190 C   0  0  0  0  0  0  0  0  0  0  0  0
    0.9590   -1.7380   -1.1643 C   0  0  0  0  0  0  0  0  0  0  0  0
   -0.8672    1.5176    4.9059 C   0  0  0  0  0  0  0  0  0  0  0  0
   -1.9362    3.5295    4.0126 C   0  0  0  0  0  0  0  0  0  0  0  0
    3.6686   -4.7601   -3.9874 C   0  0  0  0  0  0  0  0  0  0  0  0
    2.0856   -5.8108   -2.4036 C   0  0  0  0  0  0  0  0  0  0  0  0
  1  2  1  0  0  0  0
  1 10  1  0  0  0  0
  1 16  1  0  0  0  0
  2  4  2  0  0  0  0
  2  9  1  0  0  0  0
  4  6  1  0  0  0  0
  6  7  2  0  0  0  0
  7  8  1  0  0  0  0
  8  9  2  0  0  0  0
 10 11  2  0  0  0  0
 10 15  1  0  0  0  0
 11 12  1  0  0  0  0
 12 13  2  0  0  0  0
 13  3  1  0  0  0  0
 13 14  1  0  0  0  0
 14 15  2  0  0  0  0
 16 17  2  0  0  0  0
 16 21  1  0  0  0  0
 17 18  1  0  0  0  0
 18 19  2  0  0  0  0
 19  5  1  0  0  0  0
 19 20  1  0  0  0  0
 20 21  2  0  0  0  0
 22  3  1  0  0  0  0
 23  3  1  0  0  0  0
 24  5  1  0  0  0  0
 25  5  1  0  0  0  0
M  END
>  <CHROM.1>
-127.09380925,7.62699055,12.45774137,-172.15622492,22.45327365,0.64034381
0.31382408,-1.11535495,3.10812924,-1.20096341,2.29041209

>  <Name>
1q8n_lig

>  <RI>
0

>  <Rbt.Current_Directory>
/home/itssahil/PROJECTS/Mol_Feturizer/New_Systems/rnas/1q8n

>  <Rbt.Executable>
rbdock ($Id: //depot/dev/client3/rdock/2013.1/src/exe/rbdock.cxx#4 $)

>  <Rbt.Library>
libRbt.so (2013.1, Build901 2013/11/27)

>  <Rbt.Parameter_File>
/export/apps/rDock/src/rDock_2013.1_src/data/scripts/dock_solv.prm

>  <Rbt.Receptor>
prm/pocket_docking_3.prm

>  <SCORE>
-52.0222

>  <SCORE.INTER>
-52.6297

>  <SCORE.INTER.CONST>
1

>  <SCORE.INTER.POLAR>
0

>  <SCORE.INTER.ROT>
5

>  <SCORE.INTER.SOLV>
10.3755

>  <SCORE.INTER.VDW>
-45.4783

>  <SCORE.INTER.norm>
-2.10519

>  <SCORE.INTRA>
0.607517

>  <SCORE.INTRA.DIHEDRAL>
2.10053

>  <SCORE.INTRA.DIHEDRAL.0>
2.1627

>  <SCORE.INTRA.POLAR>
0

>  <SCORE.INTRA.POLAR.0>
0

>  <SCORE.INTRA.REPUL>
0

>  <SCORE.INTRA.REPUL.0>
0

>  <SCORE.INTRA.SOLV>
0.0288794

>  <SCORE.INTRA.SOLV.lig_0>
-5.95779

>  <SCORE.INTRA.VDW>
-0.457188

>  <SCORE.INTRA.VDW.0>
3.81702

>  <SCORE.INTRA.norm>
0.0243007

>  <SCORE.RESTR>
0

>  <SCORE.RESTR.CAVITY>
0

>  <SCORE.RESTR.norm>
0

>  <SCORE.SYSTEM>
0

>  <SCORE.SYSTEM.CONST>
0

>  <SCORE.SYSTEM.DIHEDRAL>
0

>  <SCORE.SYSTEM.SOLV>
0

>  <SCORE.SYSTEM.norm>
0

>  <SCORE.heavy>
25

>  <SCORE.norm>
-2.08089

>  <RMSD>
0.660

$$$$
1q8n_lig
 OpenBabel11021811403D
libRbt.so/2013.1/901 2013/11/27
 25 27  0  0  0  0  0  0  0  0999 V2000
    0.5367    1.0107   -1.6808 C   0  0  0  0  0  0  0  0  0  0  0  0
    0.5043    2.0978   -2.8985 C   0  0  0  0  0  0  0  0  0  0  0  0
    2.5272   -4.4716   -2.8655 N   0  0  0  0  0  0  0  0  0  0  0  0
   -0.1011    1.8694   -4.0885 C   0  0  0  0  0  0  0  0  0  0  0  0
   -1.1460    2.2344    3.9392 N   0  0  0  0  0  0  0  0  0  0  0  0
   -0.1024    2.8812   -5.1702 C   0  0  0  0  0  0  0  0  0  0  0  0
    0.5126    4.0707   -4.9777 C   0  0  0  0  0  0  0  0  0  0  0  0
    1.1584    4.3374   -3.7137 C   0  0  0  0  0  0  0  0  0  0  0  0
    1.1544    3.4163   -2.7469 C   0  0  0  0  0  0  0  0  0  0  0  0
    1.0812   -0.4932   -2.0003 C   0  0  0  0  0  0  0  0  0  0  0  0
    0.8374   -1.5188   -1.1584 C   0  0  0  0  0  0  0  0  0  0  0  0
    1.3267   -2.8981   -1.4340 C   0  0  0  0  0  0  0  0  0  0  0  0
    2.0401   -3.1585   -2.5620 C   0  0  0  0  0  0  0  0  0  0  0  0
    2.3127   -2.0474   -3.4933 C   0  0  0  0  0  0  0  0  0  0  0  0
    1.8664   -0.8115   -3.2289 C   0  0  0  0  0  0  0  0  0  0  0  0
    0.0330    1.4002   -0.1500 C   0  0  0  0  0  0  0  0  0  0  0  0
    0.3506    0.4818    0.9976 C   0  0  0  0  0  0  0  0  0  0  0  0
   -0.0175    0.7418    2.2551 C   0  0  0  0  0  0  0  0  0  0  0  0
   -0.7658    1.9603    2.5850 C   0  0  0  0  0  0  0  0  0  0  0  0
   -1.0819    2.8158    1.5907 C   0  0  0  0  0  0  0  0  0  0  0  0
   -0.6722    2.5348    0.1736 C   0  0  0  0  0  0  0  0  0  0  0  0
    2.0752   -5.6348   -2.1646 C   0  0  0  0  0  0  0  0  0  0  0  0
    3.4975   -4.6573   -3.8995 C   0  0  0  0  0  0  0  0  0  0  0  0
   -0.7729    1.3354    4.9932 C   0  0  0  0  0  0  0  0  0  0  0  0
   -1.9044    3.4165    4.2809 C   0  0  0  0  0  0  0  0  0  0  0  0
  1  2  1  0  0  0  0
  1 10  1  0  0  0  0
  1 16  1  0  0  0  0
  2  4  2  0  0  0  0
  2  9  1  0  0  0  0
  4  6  1  0  0  0  0
  6  7  2  0  0  0  0
  7  8  1  0  0  0  0
  8  9  2  0  0  0  0
 10 11  2  0  0  0  0
 10 15  1  0  0  0  0
 11 12  1  0  0  0  0
 12 13  2  0  0  0  0
 13  3  1  0  0  0  0
 13 14  1  0  0  0  0
 14 15  2  0  0  0  0
 16 17  2  0  0  0  0
 16 21  1  0  0  0  0
 17 18  1  0  0  0  0
 18 19  2  0  0  0  0
 19  5  1  0  0  0  0
 19 20  1  0  0  0  0
 20 21  2  0  0  0  0
 22  3  1  0  0  0  0
 23  3  1  0  0  0  0
 24  5  1  0  0  0  0
 25  5  1  0  0  0  0
M  END
>  <CHROM.1>
53.16129942,-163.58359335,-166.83354836,13.09441149,1.43065675,0.61374584
0.38392734,-1.04197998,0.10820102,1.20166414,-0.86787256

>  <Name>
1q8n_lig

>  <RI>
0

>  <Rbt.Current_Directory>
/home/itssahil/PROJECTS/Mol_Feturizer/New_Systems/rnas/1q8n

>  <Rbt.Executable>
rbdock ($Id: //depot/dev/client3/rdock/2013.1/src/exe/rbdock.cxx#4 $)

>  <Rbt.Library>
libRbt.so (2013.1, Build901 2013/11/27)

>  <Rbt.Parameter_File>
/export/apps/rDock/src/rDock_2013.1_src/data/scripts/dock_solv.prm

>  <Rbt.Receptor>
prm/pocket_docking_5.prm

>  <SCORE>
-53.3314

>  <SCORE.INTER>
-53.8494

>  <SCORE.INTER.CONST>
1

>  <SCORE.INTER.POLAR>
0

>  <SCORE.INTER.ROT>
5

>  <SCORE.INTER.SOLV>
10.2885

>  <SCORE.INTER.VDW>
-46.2624

>  <SCORE.INTER.norm>
-2.15398

>  <SCORE.INTRA>
0.51807

>  <SCORE.INTRA.DIHEDRAL>
0.664364

>  <SCORE.INTRA.DIHEDRAL.0>
2.1627

>  <SCORE.INTRA.POLAR>
0

>  <SCORE.INTRA.POLAR.0>
0

>  <SCORE.INTRA.REPUL>
0

>  <SCORE.INTRA.REPUL.0>
0

>  <SCORE.INTRA.SOLV>
0.0268794

>  <SCORE.INTRA.SOLV.lig_0>
-5.95779

>  <SCORE.INTRA.VDW>
0.172448

>  <SCORE.INTRA.VDW.0>
3.81702

>  <SCORE.INTRA.norm>
0.0207228

>  <SCORE.RESTR>
0

>  <SCORE.RESTR.CAVITY>
0

>  <SCORE.RESTR.norm>
0

>  <SCORE.SYSTEM>
0

>  <SCORE.SYSTEM.CONST>
0

>  <SCORE.SYSTEM.DIHEDRAL>
0

>  <SCORE.SYSTEM.SOLV>
0

>  <SCORE.SYSTEM.norm>
0

>  <SCORE.heavy>
25

>  <SCORE.norm>
-2.13325

>  <RMSD>
0.660

$$$$
1q8n_lig
 OpenBabel11021811403D
libRbt.so/2013.1/901 2013/11/27
 25 27  0  0  0  0  0  0  0  0999 V2000
    0.5575    1.0224   -1.6708 C   0  0  0  0  0  0  0  0  0  0  0  0
    0.5384    2.1134   -2.8851 C   0  0  0  0  0  0  0  0  0  0  0  0
    2.5393   -4.4627   -2.8574 N   0  0  0  0  0  0  0  0  0  0  0  0
    1.1325    3.3283   -2.8079 C   0  0  0  0  0  0  0  0  0  0  0  0
   -1.1599    2.2381    3.9404 N   0  0  0  0  0  0  0  0  0  0  0  0
    1.0866    4.2922   -3.9316 C   0  0  0  0  0  0  0  0  0  0  0  0
    0.4387    3.9629   -5.0726 C   0  0  0  0  0  0  0  0  0  0  0  0
   -0.1959    2.6699   -5.1785 C   0  0  0  0  0  0  0  0  0  0  0  0
   -0.1492    1.8103   -4.1577 C   0  0  0  0  0  0  0  0  0  0  0  0
    1.0996   -0.4823   -1.9909 C   0  0  0  0  0  0  0  0  0  0  0  0
    0.8442   -1.5102   -1.1551 C   0  0  0  0  0  0  0  0  0  0  0  0
    1.3311   -2.8902   -1.4313 C   0  0  0  0  0  0  0  0  0  0  0  0
    2.0541   -3.1490   -2.5536 C   0  0  0  0  0  0  0  0  0  0  0  0
    2.3393   -2.0354   -3.4781 C   0  0  0  0  0  0  0  0  0  0  0  0
    1.8950   -0.7989   -3.2132 C   0  0  0  0  0  0  0  0  0  0  0  0
    0.0431    1.4086   -0.1428 C   0  0  0  0  0  0  0  0  0  0  0  0
    0.3807    0.5043    1.0104 C   0  0  0  0  0  0  0  0  0  0  0  0
    0.0052    0.7628    2.2661 C   0  0  0  0  0  0  0  0  0  0  0  0
   -0.7718    1.9654    2.5882 C   0  0  0  0  0  0  0  0  0  0  0  0
   -1.1067    2.8076    1.5887 C   0  0  0  0  0  0  0  0  0  0  0  0
   -0.6888    2.5283    0.1737 C   0  0  0  0  0  0  0  0  0  0  0  0
    2.0576   -5.6297   -2.1831 C   0  0  0  0  0  0  0  0  0  0  0  0
    3.5379   -4.6452   -3.8647 C   0  0  0  0  0  0  0  0  0  0  0  0
   -0.8412    1.3105    4.9875 C   0  0  0  0  0  0  0  0  0  0  0  0
   -1.8721    3.4472    4.2872 C   0  0  0  0  0  0  0  0  0  0  0  0
  1  2  1  0  0  0  0
  1 10  1  0  0  0  0
  1 16  1  0  0  0  0
  2  4  2  0  0  0  0
  2  9  1  0  0  0  0
  4  6  1  0  0  0  0
  6  7  2  0  0  0  0
  7  8  1  0  0  0  0
  8  9  2  0  0  0  0
 10 11  2  0  0  0  0
 10 15  1  0  0  0  0
 11 12  1  0  0  0  0
 12 13  2  0  0  0  0
 13  3  1  0  0  0  0
 13 14  1  0  0  0  0
 14 15  2  0  0  0  0
 16 17  2  0  0  0  0
 16 21  1  0  0  0  0
 17 18  1  0  0  0  0
 18 19  2  0  0  0  0
 19  5  1  0  0  0  0
 19 20  1  0  0  0  0
 20 21  2  0  0  0  0
 22  3  1  0  0  0  0
 23  3  1  0  0  0  0
 24  5  1  0  0  0  0
 25  5  1  0  0  0  0
M  END
>  <CHROM.1>
-125.95146197,-163.49485045,-165.17561388,14.33760290,-2.58855001,0.60733704
0.37036907,-1.05437582,2.98600855,-1.19762097,2.23877112

>  <Name>
1q8n_lig

>  <RI>
0

>  <Rbt.Current_Directory>
/home/itssahil/PROJECTS/Mol_Feturizer/New_Systems/rnas/1q8n

>  <Rbt.Executable>
rbdock ($Id: //depot/dev/client3/rdock/2013.1/src/exe/rbdock.cxx#4 $)

>  <Rbt.Library>
libRbt.so (2013.1, Build901 2013/11/27)

>  <Rbt.Parameter_File>
/export/apps/rDock/src/rDock_2013.1_src/data/scripts/dock_solv.prm

>  <Rbt.Receptor>
prm/pocket_docking_5.prm

>  <SCORE>
-53.9098

>  <SCORE.INTER>
-54.404

>  <SCORE.INTER.CONST>
1

>  <SCORE.INTER.POLAR>
0

>  <SCORE.INTER.ROT>
5

>  <SCORE.INTER.SOLV>
10.179

>  <SCORE.INTER.VDW>
-46.5957

>  <SCORE.INTER.norm>
-2.17616

>  <SCORE.INTRA>
0.494152

>  <SCORE.INTRA.DIHEDRAL>
0.810894

>  <SCORE.INTRA.DIHEDRAL.0>
2.1627

>  <SCORE.INTRA.POLAR>
0

>  <SCORE.INTRA.POLAR.0>
0

>  <SCORE.INTRA.REPUL>
0

>  <SCORE.INTRA.REPUL.0>
0

>  <SCORE.INTRA.SOLV>
0.0257154

>  <SCORE.INTRA.SOLV.lig_0>
-5.95779

>  <SCORE.INTRA.VDW>
0.0758475

>  <SCORE.INTRA.VDW.0>
3.81702

>  <SCORE.INTRA.norm>
0.0197661

>  <SCORE.RESTR>
0

>  <SCORE.RESTR.CAVITY>
0

>  <SCORE.RESTR.norm>
0

>  <SCORE.SYSTEM>
0

>  <SCORE.SYSTEM.CONST>
0

>  <SCORE.SYSTEM.DIHEDRAL>
0

>  <SCORE.SYSTEM.SOLV>
0

>  <SCORE.SYSTEM.norm>
0

>  <SCORE.heavy>
25

>  <SCORE.norm>
-2.15639

>  <RMSD>
0.660

$$$$
1q8n_lig
 OpenBabel11021811403D
libRbt.so/2013.1/901 2013/11/27
 25 27  0  0  0  0  0  0  0  0999 V2000
    0.6168    1.0729   -1.6624 C   0  0  0  0  0  0  0  0  0  0  0  0
    0.6108    2.1822   -2.8602 C   0  0  0  0  0  0  0  0  0  0  0  0
    2.6171   -4.3923   -2.9085 N   0  0  0  0  0  0  0  0  0  0  0  0
    1.1885    3.4026   -2.7517 C   0  0  0  0  0  0  0  0  0  0  0  0
   -1.1649    2.2038    3.9465 N   0  0  0  0  0  0  0  0  0  0  0  0
    1.1555    4.3830   -3.8615 C   0  0  0  0  0  0  0  0  0  0  0  0
    0.5364    4.0638   -5.0211 C   0  0  0  0  0  0  0  0  0  0  0  0
   -0.0802    2.7652   -5.1604 C   0  0  0  0  0  0  0  0  0  0  0  0
   -0.0453    1.8907   -4.1519 C   0  0  0  0  0  0  0  0  0  0  0  0
    1.1636   -0.4264   -1.9989 C   0  0  0  0  0  0  0  0  0  0  0  0
    0.8502   -1.4778   -1.2136 C   0  0  0  0  0  0  0  0  0  0  0  0
    1.3404   -2.8534   -1.5055 C   0  0  0  0  0  0  0  0  0  0  0  0
    2.1263   -3.0838   -2.5911 C   0  0  0  0  0  0  0  0  0  0  0  0
    2.4756   -1.9443   -3.4604 C   0  0  0  0  0  0  0  0  0  0  0  0
    2.0273   -0.7122   -3.1819 C   0  0  0  0  0  0  0  0  0  0  0  0
    0.0844    1.4357   -0.1347 C   0  0  0  0  0  0  0  0  0  0  0  0
    0.4177    0.5193    1.0102 C   0  0  0  0  0  0  0  0  0  0  0  0
    0.0279    0.7588    2.2652 C   0  0  0  0  0  0  0  0  0  0  0  0
   -0.7615    1.9513    2.5949 C   0  0  0  0  0  0  0  0  0  0  0  0
   -1.0930    2.8036    1.6029 C   0  0  0  0  0  0  0  0  0  0  0  0
   -0.6592    2.5456    0.1886 C   0  0  0  0  0  0  0  0  0  0  0  0
    3.6093   -4.6122   -3.9163 C   0  0  0  0  0  0  0  0  0  0  0  0
    2.1177   -5.5362   -2.2105 C   0  0  0  0  0  0  0  0  0  0  0  0
   -0.8522    1.2637    4.9843 C   0  0  0  0  0  0  0  0  0  0  0  0
   -1.8869    3.4045    4.3021 C   0  0  0  0  0  0  0  0  0  0  0  0
  1  2  1  0  0  0  0
  1 10  1  0  0  0  0
  1 16  1  0  0  0  0
  2  4  2  0  0  0  0
  2  9  1  0  0  0  0
  4  6  1  0  0  0  0
  6  7  2  0  0  0  0
  7  8  1  0  0  0  0
  8  9  2  0  0  0  0
 10 11  2  0  0  0  0
 10 15  1  0  0  0  0
 11 12  1  0  0  0  0
 12 13  2  0  0  0  0
 13  3  1  0  0  0  0
 13 14  1  0  0  0  0
 14 15  2  0  0  0  0
 16 17  2  0  0  0  0
 16 21  1  0  0  0  0
 17 18  1  0  0  0  0
 18 19  2  0  0  0  0
 19  5  1  0  0  0  0
 19 20  1  0  0  0  0
 20 21  2  0  0  0  0
 22  3  1  0  0  0  0
 23  3  1  0  0  0  0
 24  5  1  0  0  0  0
 25  5  1  0  0  0  0
M  END
>  <CHROM.1>
-126.81581407,-160.53389842,-164.74009761,-169.86121847,-2.74118398,0.65969491
0.41103762,-1.05347395,3.01272320,-1.18986209,2.27799017

>  <Name>
1q8n_lig

>  <RI>
0

>  <Rbt.Current_Directory>
/home/itssahil/PROJECTS/Mol_Feturizer/New_Systems/rnas/1q8n

>  <Rbt.Executable>
rbdock ($Id: //depot/dev/client3/rdock/2013.1/src/exe/rbdock.cxx#4 $)

>  <Rbt.Library>
libRbt.so (2013.1, Build901 2013/11/27)

>  <Rbt.Parameter_File>
/export/apps/rDock/src/rDock_2013.1_src/data/scripts/dock_solv.prm

>  <Rbt.Receptor>
prm/pocket_docking_5.prm

>  <SCORE>
-53.8068

>  <SCORE.INTER>
-54.1816

>  <SCORE.INTER.CONST>
1

>  <SCORE.INTER.POLAR>
0

>  <SCORE.INTER.ROT>
5

>  <SCORE.INTER.SOLV>
10.2046

>  <SCORE.INTER.VDW>
-46.456

>  <SCORE.INTER.norm>
-2.16727

>  <SCORE.INTRA>
0.374787

>  <SCORE.INTRA.DIHEDRAL>
0.425772

>  <SCORE.INTRA.DIHEDRAL.0>
2.1627

>  <SCORE.INTRA.POLAR>
0

>  <SCORE.INTRA.POLAR.0>
0

>  <SCORE.INTRA.REPUL>
0

>  <SCORE.INTRA.REPUL.0>
0

>  <SCORE.INTRA.SOLV>
0.0239153

>  <SCORE.INTRA.SOLV.lig_0>
-5.95779

>  <SCORE.INTRA.VDW>
0.149944

>  <SCORE.INTRA.VDW.0>
3.81702

>  <SCORE.INTRA.norm>
0.0149915

>  <SCORE.RESTR>
0

>  <SCORE.RESTR.CAVITY>
0

>  <SCORE.RESTR.norm>
0

>  <SCORE.SYSTEM>
0

>  <SCORE.SYSTEM.CONST>
0

>  <SCORE.SYSTEM.DIHEDRAL>
0

>  <SCORE.SYSTEM.SOLV>
0

>  <SCORE.SYSTEM.norm>
0

>  <SCORE.heavy>
25

>  <SCORE.norm>
-2.15227

>  <RMSD>
0.660

$$$$
1q8n_lig
 OpenBabel11021811413D
libRbt.so/2013.1/901 2013/11/27
 25 27  0  0  0  0  0  0  0  0999 V2000
    0.5578    0.8199   -1.6678 C   0  0  0  0  0  0  0  0  0  0  0  0
    0.5037    1.9566   -2.8385 C   0  0  0  0  0  0  0  0  0  0  0  0
   -1.1992    2.3469    3.8097 N   0  0  0  0  0  0  0  0  0  0  0  0
   -0.1279    1.7796   -4.0237 C   0  0  0  0  0  0  0  0  0  0  0  0
    2.5789   -4.6692   -2.9706 N   0  0  0  0  0  0  0  0  0  0  0  0
   -0.1484    2.8354   -5.0623 C   0  0  0  0  0  0  0  0  0  0  0  0
    0.4752    4.0139   -4.8340 C   0  0  0  0  0  0  0  0  0  0  0  0
    1.1490    4.2261   -3.5743 C   0  0  0  0  0  0  0  0  0  0  0  0
    1.1620    3.2658   -2.6466 C   0  0  0  0  0  0  0  0  0  0  0  0
    0.0772    1.2333   -0.1651 C   0  0  0  0  0  0  0  0  0  0  0  0
    0.3300    0.4366    0.8940 C   0  0  0  0  0  0  0  0  0  0  0  0
   -0.1013    0.7980    2.2729 C   0  0  0  0  0  0  0  0  0  0  0  0
   -0.7687    1.9612    2.4984 C   0  0  0  0  0  0  0  0  0  0  0  0
   -1.0504    2.8437    1.3504 C   0  0  0  0  0  0  0  0  0  0  0  0
   -0.6566    2.5022    0.1155 C   0  0  0  0  0  0  0  0  0  0  0  0
    1.0852   -0.7220   -1.9728 C   0  0  0  0  0  0  0  0  0  0  0  0
    1.7534   -1.0381   -3.2824 C   0  0  0  0  0  0  0  0  0  0  0  0
    2.2092   -2.2564   -3.5862 C   0  0  0  0  0  0  0  0  0  0  0  0
    2.0766   -3.3690   -2.6384 C   0  0  0  0  0  0  0  0  0  0  0  0
    1.4788   -3.1406   -1.4506 C   0  0  0  0  0  0  0  0  0  0  0  0
    0.9640   -1.7748   -1.0974 C   0  0  0  0  0  0  0  0  0  0  0  0
   -0.9095    1.5615    4.9706 C   0  0  0  0  0  0  0  0  0  0  0  0
   -1.9445    3.5532    3.9958 C   0  0  0  0  0  0  0  0  0  0  0  0
    2.0306   -5.8395   -2.3473 C   0  0  0  0  0  0  0  0  0  0  0  0
    3.6386   -4.8393   -3.9388 C   0  0  0  0  0  0  0  0  0  0  0  0
  1  2  1  0  0  0  0
  1 10  1  0  0  0  0
  1 16  1  0  0  0  0
  2  4  2  0  0  0  0
  2  9  1  0  0  0  0
  4  6  1  0  0  0  0
  6  7  2  0  0  0  0
  7  8  1  0  0  0  0
  8  9  2  0  0  0  0
 10 11  2  0  0  0  0
 10 15  1  0  0  0  0
 11 12  1  0  0  0  0
 12 13  2  0  0  0  0
 13  3  1  0  0  0  0
 13 14  1  0  0  0  0
 14 15  2  0  0  0  0
 16 17  2  0  0  0  0
 16 21  1  0  0  0  0
 17 18  1  0  0  0  0
 18 19  2  0  0  0  0
 19  5  1  0  0  0  0
 19 20  1  0  0  0  0
 20 21  2  0  0  0  0
 22  3  1  0  0  0  0
 23  3  1  0  0  0  0
 24  5  1  0  0  0  0
 25  5  1  0  0  0  0
M  END
>  <CHROM.1>
-126.82834835,-167.26897145,10.77702049,2.52064004,-155.57668397,0.60959793
0.29013394,-1.07604910,3.10627755,-1.20234234,2.27796571

>  <Name>
1q8n_lig

>  <RI>
0

>  <Rbt.Current_Directory>
/home/itssahil/PROJECTS/Mol_Feturizer/New_Systems/rnas/1q8n

>  <Rbt.Executable>
rbdock ($Id: //depot/dev/client3/rdock/2013.1/src/exe/rbdock.cxx#4 $)

>  <Rbt.Library>
libRbt.so (2013.1, Build901 2013/11/27)

>  <Rbt.Parameter_File>
/export/apps/rDock/src/rDock_2013.1_src/data/scripts/dock_solv.prm

>  <Rbt.Receptor>
prm/pocket_docking_7.prm

>  <SCORE>
-52.0624

>  <SCORE.INTER>
-52.7367

>  <SCORE.INTER.CONST>
1

>  <SCORE.INTER.POLAR>
0

>  <SCORE.INTER.ROT>
5

>  <SCORE.INTER.SOLV>
10.3851

>  <SCORE.INTER.VDW>
-45.5528

>  <SCORE.INTER.norm>
-2.10947

>  <SCORE.INTRA>
0.6743

>  <SCORE.INTRA.DIHEDRAL>
2.20885

>  <SCORE.INTRA.DIHEDRAL.0>
2.1627

>  <SCORE.INTRA.POLAR>
0

>  <SCORE.INTRA.POLAR.0>
0

>  <SCORE.INTRA.REPUL>
0

>  <SCORE.INTRA.REPUL.0>
0

>  <SCORE.INTRA.SOLV>
0.0263207

>  <SCORE.INTRA.SOLV.lig_0>
-5.95779

>  <SCORE.INTRA.VDW>
-0.443283

>  <SCORE.INTRA.VDW.0>
3.81702

>  <SCORE.INTRA.norm>
0.026972

>  <SCORE.RESTR>
0

>  <SCORE.RESTR.CAVITY>
0

>  <SCORE.RESTR.norm>
0

>  <SCORE.SYSTEM>
0

>  <SCORE.SYSTEM.CONST>
0

>  <SCORE.SYSTEM.DIHEDRAL>
0

>  <SCORE.SYSTEM.SOLV>
0

>  <SCORE.SYSTEM.norm>
0

>  <SCORE.heavy>
25

>  <SCORE.norm>
-2.0825

>  <RMSD>
0.662

$$$$
1q8n_lig
 OpenBabel11021811403D
libRbt.so/2013.1/901 2013/11/27
 25 27  0  0  0  0  0  0  0  0999 V2000
    0.5921    1.0497   -1.6624 C   0  0  0  0  0  0  0  0  0  0  0  0
    0.5772    2.1394   -2.8779 C   0  0  0  0  0  0  0  0  0  0  0  0
    2.5526   -4.4444   -2.8427 N   0  0  0  0  0  0  0  0  0  0  0  0
    1.1840    3.3483   -2.8055 C   0  0  0  0  0  0  0  0  0  0  0  0
   -1.1550    2.2539    3.9421 N   0  0  0  0  0  0  0  0  0  0  0  0
    1.1417    4.3113   -3.9301 C   0  0  0  0  0  0  0  0  0  0  0  0
    0.4841    3.9873   -5.0671 C   0  0  0  0  0  0  0  0  0  0  0  0
   -0.1641    2.7006   -5.1679 C   0  0  0  0  0  0  0  0  0  0  0  0
   -0.1205    1.8418   -4.1463 C   0  0  0  0  0  0  0  0  0  0  0  0
    1.1282   -0.4575   -1.9808 C   0  0  0  0  0  0  0  0  0  0  0  0
    0.8445   -1.4889   -1.1586 C   0  0  0  0  0  0  0  0  0  0  0  0
    1.3255   -2.8713   -1.4335 C   0  0  0  0  0  0  0  0  0  0  0  0
    2.0721   -3.1285   -2.5407 C   0  0  0  0  0  0  0  0  0  0  0  0
    2.3885   -2.0111   -3.4502 C   0  0  0  0  0  0  0  0  0  0  0  0
    1.9490   -0.7725   -3.1867 C   0  0  0  0  0  0  0  0  0  0  0  0
    0.0792    1.4397   -0.1348 C   0  0  0  0  0  0  0  0  0  0  0  0
    0.2142    0.4369    0.9778 C   0  0  0  0  0  0  0  0  0  0  0  0
   -0.1702    0.6915    2.2315 C   0  0  0  0  0  0  0  0  0  0  0  0
   -0.7561    1.9879    2.5918 C   0  0  0  0  0  0  0  0  0  0  0  0
   -0.9054    2.9215    1.6292 C   0  0  0  0  0  0  0  0  0  0  0  0
   -0.4754    2.6472    0.2169 C   0  0  0  0  0  0  0  0  0  0  0  0
    2.0818   -5.6066   -2.1527 C   0  0  0  0  0  0  0  0  0  0  0  0
    3.5354   -4.6339   -3.8642 C   0  0  0  0  0  0  0  0  0  0  0  0
   -1.9022    3.4373    4.2578 C   0  0  0  0  0  0  0  0  0  0  0  0
   -0.8248    1.3435    5.0152 C   0  0  0  0  0  0  0  0  0  0  0  0
  1  2  1  0  0  0  0
  1 10  1  0  0  0  0
  1 16  1  0  0  0  0
  2  4  2  0  0  0  0
  2  9  1  0  0  0  0
  4  6  1  0  0  0  0
  6  7  2  0  0  0  0
  7  8  1  0  0  0  0
  8  9  2  0  0  0  0
 10 11  2  0  0  0  0
 10 15  1  0  0  0  0
 11 12  1  0  0  0  0
 12 13  2  0  0  0  0
 13  3  1  0  0  0  0
 13 14  1  0  0  0  0
 14 15  2  0  0  0  0
 16 17  2  0  0  0  0
 16 21  1  0  0  0  0
 17 18  1  0  0  0  0
 18 19  2  0  0  0  0
 19  5  1  0  0  0  0
 19 20  1  0  0  0  0
 20 21  2  0  0  0  0
 22  3  1  0  0  0  0
 23  3  1  0  0  0  0
 24  5  1  0  0  0  0
 25  5  1  0  0  0  0
M  END
>  <CHROM.1>
-125.47281737,-162.05430604,-175.10462509,11.90962080,-170.86679907,0.62992198
0.39229207,-1.04669268,3.01339320,-1.19864496,2.26724477

>  <Name>
1q8n_lig

>  <RI>
0

>  <Rbt.Current_Directory>
/home/itssahil/PROJECTS/Mol_Feturizer/New_Systems/rnas/1q8n

>  <Rbt.Executable>
rbdock ($Id: //depot/dev/client3/rdock/2013.1/src/exe/rbdock.cxx#4 $)

>  <Rbt.Library>
libRbt.so (2013.1, Build901 2013/11/27)

>  <Rbt.Parameter_File>
/export/apps/rDock/src/rDock_2013.1_src/data/scripts/dock_solv.prm

>  <Rbt.Receptor>
prm/blind_docking_20.prm

>  <SCORE>
-53.9362

>  <SCORE.INTER>
-54.6176

>  <SCORE.INTER.CONST>
1

>  <SCORE.INTER.POLAR>
0

>  <SCORE.INTER.ROT>
5

>  <SCORE.INTER.SOLV>
10.1528

>  <SCORE.INTER.VDW>
-46.7294

>  <SCORE.INTER.norm>
-2.18471

>  <SCORE.INTRA>
0.681431

>  <SCORE.INTRA.DIHEDRAL>
0.865959

>  <SCORE.INTRA.DIHEDRAL.0>
2.1627

>  <SCORE.INTRA.POLAR>
0

>  <SCORE.INTRA.POLAR.0>
0

>  <SCORE.INTRA.REPUL>
0

>  <SCORE.INTRA.REPUL.0>
0

>  <SCORE.INTRA.SOLV>
0.0286268

>  <SCORE.INTRA.SOLV.lig_0>
-5.95779

>  <SCORE.INTRA.VDW>
0.234138

>  <SCORE.INTRA.VDW.0>
3.81702

>  <SCORE.INTRA.norm>
0.0272572

>  <SCORE.RESTR>
0

>  <SCORE.RESTR.CAVITY>
0

>  <SCORE.RESTR.norm>
0

>  <SCORE.SYSTEM>
0

>  <SCORE.SYSTEM.CONST>
0

>  <SCORE.SYSTEM.DIHEDRAL>
0

>  <SCORE.SYSTEM.SOLV>
0

>  <SCORE.SYSTEM.norm>
0

>  <SCORE.heavy>
25

>  <SCORE.norm>
-2.15745

>  <RMSD>
0.663

$$$$
1q8n_lig
 OpenBabel11021811403D
libRbt.so/2013.1/901 2013/11/27
 25 27  0  0  0  0  0  0  0  0999 V2000
    0.5989    1.1203   -1.6492 C   0  0  0  0  0  0  0  0  0  0  0  0
    0.5923    2.2340   -2.8430 C   0  0  0  0  0  0  0  0  0  0  0  0
    2.5707   -4.3486   -2.9239 N   0  0  0  0  0  0  0  0  0  0  0  0
    1.2017    3.4397   -2.7438 C   0  0  0  0  0  0  0  0  0  0  0  0
   -1.1606    2.2320    3.9705 N   0  0  0  0  0  0  0  0  0  0  0  0
    1.1669    4.4248   -3.8493 C   0  0  0  0  0  0  0  0  0  0  0  0
    0.5139    4.1250   -4.9955 C   0  0  0  0  0  0  0  0  0  0  0  0
   -0.1369    2.8422   -5.1248 C   0  0  0  0  0  0  0  0  0  0  0  0
   -0.1001    1.9632   -4.1202 C   0  0  0  0  0  0  0  0  0  0  0  0
    1.1379   -0.3801   -1.9936 C   0  0  0  0  0  0  0  0  0  0  0  0
    0.8094   -1.4358   -1.2203 C   0  0  0  0  0  0  0  0  0  0  0  0
    1.2922   -2.8125   -1.5196 C   0  0  0  0  0  0  0  0  0  0  0  0
    2.0866   -3.0393   -2.5998 C   0  0  0  0  0  0  0  0  0  0  0  0
    2.4524   -1.8950   -3.4558 C   0  0  0  0  0  0  0  0  0  0  0  0
    2.0105   -0.6621   -3.1709 C   0  0  0  0  0  0  0  0  0  0  0  0
    0.0750    1.4798   -0.1179 C   0  0  0  0  0  0  0  0  0  0  0  0
    0.3635    0.5312    1.0128 C   0  0  0  0  0  0  0  0  0  0  0  0
   -0.0218    0.7660    2.2701 C   0  0  0  0  0  0  0  0  0  0  0  0
   -0.7616    1.9852    2.6166 C   0  0  0  0  0  0  0  0  0  0  0  0
   -1.0520    2.8673    1.6377 C   0  0  0  0  0  0  0  0  0  0  0  0
   -0.6226    2.6147    0.2211 C   0  0  0  0  0  0  0  0  0  0  0  0
    2.1069   -5.5230   -2.2499 C   0  0  0  0  0  0  0  0  0  0  0  0
    3.5500   -4.5188   -3.9521 C   0  0  0  0  0  0  0  0  0  0  0  0
   -1.9065    3.4116    4.3033 C   0  0  0  0  0  0  0  0  0  0  0  0
   -0.8319    1.3055    5.0303 C   0  0  0  0  0  0  0  0  0  0  0  0
  1  2  1  0  0  0  0
  1 10  1  0  0  0  0
  1 16  1  0  0  0  0
  2  4  2  0  0  0  0
  2  9  1  0  0  0  0
  4  6  1  0  0  0  0
  6  7  2  0  0  0  0
  7  8  1  0  0  0  0
  8  9  2  0  0  0  0
 10 11  2  0  0  0  0
 10 15  1  0  0  0  0
 11 12  1  0  0  0  0
 12 13  2  0  0  0  0
 13  3  1  0  0  0  0
 13 14  1  0  0  0  0
 14 15  2  0  0  0  0
 16 17  2  0  0  0  0
 16 21  1  0  0  0  0
 17 18  1  0  0  0  0
 18 19  2  0  0  0  0
 19  5  1  0  0  0  0
 19 20  1  0  0  0  0
 20 21  2  0  0  0  0
 22  3  1  0  0  0  0
 23  3  1  0  0  0  0
 24  5  1  0  0  0  0
 25  5  1  0  0  0  0
M  END
>  <CHROM.1>
-125.26279804,-159.67210074,-167.10808103,8.81306674,-178.77865955,0.64020995
0.45563287,-1.04477775,3.01361414,-1.19456212,2.28396553

>  <Name>
1q8n_lig

>  <RI>
0

>  <Rbt.Current_Directory>
/home/itssahil/PROJECTS/Mol_Feturizer/New_Systems/rnas/1q8n

>  <Rbt.Executable>
rbdock ($Id: //depot/dev/client3/rdock/2013.1/src/exe/rbdock.cxx#4 $)

>  <Rbt.Library>
libRbt.so (2013.1, Build901 2013/11/27)

>  <Rbt.Parameter_File>
/export/apps/rDock/src/rDock_2013.1_src/data/scripts/dock_solv.prm

>  <Rbt.Receptor>
prm/pocket_docking_5.prm

>  <SCORE>
-53.8898

>  <SCORE.INTER>
-54.3199

>  <SCORE.INTER.CONST>
1

>  <SCORE.INTER.POLAR>
0

>  <SCORE.INTER.ROT>
5

>  <SCORE.INTER.SOLV>
10.2479

>  <SCORE.INTER.VDW>
-46.5626

>  <SCORE.INTER.norm>
-2.1728

>  <SCORE.INTRA>
0.430129

>  <SCORE.INTRA.DIHEDRAL>
0.305695

>  <SCORE.INTRA.DIHEDRAL.0>
2.1627

>  <SCORE.INTRA.POLAR>
0

>  <SCORE.INTRA.POLAR.0>
0

>  <SCORE.INTRA.REPUL>
0

>  <SCORE.INTRA.REPUL.0>
0

>  <SCORE.INTRA.SOLV>
0.0229561

>  <SCORE.INTRA.SOLV.lig_0>
-5.95779

>  <SCORE.INTRA.VDW>
0.265803

>  <SCORE.INTRA.VDW.0>
3.81702

>  <SCORE.INTRA.norm>
0.0172052

>  <SCORE.RESTR>
0

>  <SCORE.RESTR.CAVITY>
0

>  <SCORE.RESTR.norm>
0

>  <SCORE.SYSTEM>
0

>  <SCORE.SYSTEM.CONST>
0

>  <SCORE.SYSTEM.DIHEDRAL>
0

>  <SCORE.SYSTEM.SOLV>
0

>  <SCORE.SYSTEM.norm>
0

>  <SCORE.heavy>
25

>  <SCORE.norm>
-2.15559

>  <RMSD>
0.664

$$$$
1q8n_lig
 OpenBabel11021811413D
libRbt.so/2013.1/901 2013/11/27
 25 27  0  0  0  0  0  0  0  0999 V2000
    0.6258    0.8497   -1.7443 C   0  0  0  0  0  0  0  0  0  0  0  0
    0.5457    1.9638   -2.9350 C   0  0  0  0  0  0  0  0  0  0  0  0
    2.6444   -4.5891   -3.0734 N   0  0  0  0  0  0  0  0  0  0  0  0
   -0.1350    1.7748   -4.0908 C   0  0  0  0  0  0  0  0  0  0  0  0
   -1.1584    2.3145    3.7860 N   0  0  0  0  0  0  0  0  0  0  0  0
   -0.1778    2.8100   -5.1493 C   0  0  0  0  0  0  0  0  0  0  0  0
    0.4747    3.9813   -4.9697 C   0  0  0  0  0  0  0  0  0  0  0  0
    1.2010    4.2061   -3.7417 C   0  0  0  0  0  0  0  0  0  0  0  0
    1.2337    3.2642   -2.7957 C   0  0  0  0  0  0  0  0  0  0  0  0
    1.1798   -0.6392   -2.1136 C   0  0  0  0  0  0  0  0  0  0  0  0
    1.8541   -0.8703   -3.2592 C   0  0  0  0  0  0  0  0  0  0  0  0
    2.3670   -2.2230   -3.6127 C   0  0  0  0  0  0  0  0  0  0  0  0
    2.1656   -3.2725   -2.7718 C   0  0  0  0  0  0  0  0  0  0  0  0
    1.4318   -3.0348   -1.5144 C   0  0  0  0  0  0  0  0  0  0  0  0
    0.9753   -1.8112   -1.2126 C   0  0  0  0  0  0  0  0  0  0  0  0
    0.1607    1.1975   -0.1914 C   0  0  0  0  0  0  0  0  0  0  0  0
   -0.4085    2.5512    0.1329 C   0  0  0  0  0  0  0  0  0  0  0  0
   -0.8107    2.8914    1.3604 C   0  0  0  0  0  0  0  0  0  0  0  0
   -0.7139    1.9424    2.4756 C   0  0  0  0  0  0  0  0  0  0  0  0
   -0.2043    0.7155    2.2399 C   0  0  0  0  0  0  0  0  0  0  0  0
    0.2496    0.3213    0.8639 C   0  0  0  0  0  0  0  0  0  0  0  0
    3.6725   -4.8249   -4.0409 C   0  0  0  0  0  0  0  0  0  0  0  0
    2.0961   -5.7253   -2.4000 C   0  0  0  0  0  0  0  0  0  0  0  0
   -0.8477    1.4902    4.9185 C   0  0  0  0  0  0  0  0  0  0  0  0
   -1.9206    3.5230    4.0047 C   0  0  0  0  0  0  0  0  0  0  0  0
  1  2  1  0  0  0  0
  1 10  1  0  0  0  0
  1 16  1  0  0  0  0
  2  4  2  0  0  0  0
  2  9  1  0  0  0  0
  4  6  1  0  0  0  0
  6  7  2  0  0  0  0
  7  8  1  0  0  0  0
  8  9  2  0  0  0  0
 10 11  2  0  0  0  0
 10 15  1  0  0  0  0
 11 12  1  0  0  0  0
 12 13  2  0  0  0  0
 13  3  1  0  0  0  0
 13 14  1  0  0  0  0
 14 15  2  0  0  0  0
 16 17  2  0  0  0  0
 16 21  1  0  0  0  0
 17 18  1  0  0  0  0
 18 19  2  0  0  0  0
 19  5  1  0  0  0  0
 19 20  1  0  0  0  0
 20 21  2  0  0  0  0
 22  3  1  0  0  0  0
 23  3  1  0  0  0  0
 24  5  1  0  0  0  0
 25  5  1  0  0  0  0
M  END
>  <CHROM.1>
55.88495896,15.95715675,2.73845022,18.65453289,-168.72115088,0.66261614,0.30272380
-1.14117438,0.07073148,1.20034851,-0.86842132

>  <Name>
1q8n_lig

>  <RI>
0

>  <Rbt.Current_Directory>
/home/itssahil/PROJECTS/Mol_Feturizer/New_Systems/rnas/1q8n

>  <Rbt.Executable>
rbdock ($Id: //depot/dev/client3/rdock/2013.1/src/exe/rbdock.cxx#4 $)

>  <Rbt.Library>
libRbt.so (2013.1, Build901 2013/11/27)

>  <Rbt.Parameter_File>
/export/apps/rDock/src/rDock_2013.1_src/data/scripts/dock_solv.prm

>  <Rbt.Receptor>
prm/pocket_docking_7.prm

>  <SCORE>
-53.269

>  <SCORE.INTER>
-53.8243

>  <SCORE.INTER.CONST>
1

>  <SCORE.INTER.POLAR>
0

>  <SCORE.INTER.ROT>
5

>  <SCORE.INTER.SOLV>
10.226

>  <SCORE.INTER.VDW>
-46.2249

>  <SCORE.INTER.norm>
-2.15297

>  <SCORE.INTRA>
0.555326

>  <SCORE.INTRA.DIHEDRAL>
1.79552

>  <SCORE.INTRA.DIHEDRAL.0>
2.1627

>  <SCORE.INTRA.POLAR>
0

>  <SCORE.INTRA.POLAR.0>
0

>  <SCORE.INTRA.REPUL>
0

>  <SCORE.INTRA.REPUL.0>
0

>  <SCORE.INTRA.SOLV>
0.02435

>  <SCORE.INTRA.SOLV.lig_0>
-5.95779

>  <SCORE.INTRA.VDW>
-0.35461

>  <SCORE.INTRA.VDW.0>
3.81702

>  <SCORE.INTRA.norm>
0.022213

>  <SCORE.RESTR>
0

>  <SCORE.RESTR.CAVITY>
0

>  <SCORE.RESTR.norm>
0

>  <SCORE.SYSTEM>
0

>  <SCORE.SYSTEM.CONST>
0

>  <SCORE.SYSTEM.DIHEDRAL>
0

>  <SCORE.SYSTEM.SOLV>
0

>  <SCORE.SYSTEM.norm>
0

>  <SCORE.heavy>
25

>  <SCORE.norm>
-2.13076

>  <RMSD>
0.664

$$$$
1q8n_lig
 OpenBabel11021811413D
libRbt.so/2013.1/901 2013/11/27
 25 27  0  0  0  0  0  0  0  0999 V2000
    0.6354    0.8496   -1.6974 C   0  0  0  0  0  0  0  0  0  0  0  0
    0.5624    1.9649   -2.8875 C   0  0  0  0  0  0  0  0  0  0  0  0
    2.6145   -4.5930   -3.0696 N   0  0  0  0  0  0  0  0  0  0  0  0
   -0.0736    1.7601   -4.0658 C   0  0  0  0  0  0  0  0  0  0  0  0
   -1.1777    2.2901    3.8298 N   0  0  0  0  0  0  0  0  0  0  0  0
   -0.1115    2.7972   -5.1226 C   0  0  0  0  0  0  0  0  0  0  0  0
    0.5002    3.9864   -4.9185 C   0  0  0  0  0  0  0  0  0  0  0  0
    1.1784    4.2281   -3.6665 C   0  0  0  0  0  0  0  0  0  0  0  0
    1.2070    3.2844   -2.7221 C   0  0  0  0  0  0  0  0  0  0  0  0
    1.1768   -0.6436   -2.0684 C   0  0  0  0  0  0  0  0  0  0  0  0
    0.9298   -1.6972   -1.2627 C   0  0  0  0  0  0  0  0  0  0  0  0
    1.4162   -3.0673   -1.5855 C   0  0  0  0  0  0  0  0  0  0  0  0
    2.1301   -3.2901   -2.7213 C   0  0  0  0  0  0  0  0  0  0  0  0
    2.4061   -2.1480   -3.6132 C   0  0  0  0  0  0  0  0  0  0  0  0
    1.9624   -0.9210   -3.3065 C   0  0  0  0  0  0  0  0  0  0  0  0
    0.1756    1.2004   -0.1436 C   0  0  0  0  0  0  0  0  0  0  0  0
   -0.6696    2.4139    0.1298 C   0  0  0  0  0  0  0  0  0  0  0  0
   -1.0814    2.7469    1.3561 C   0  0  0  0  0  0  0  0  0  0  0  0
   -0.7213    1.9293    2.5203 C   0  0  0  0  0  0  0  0  0  0  0  0
    0.0412    0.8323    2.3309 C   0  0  0  0  0  0  0  0  0  0  0  0
    0.5087    0.4472    0.9569 C   0  0  0  0  0  0  0  0  0  0  0  0
    2.0844   -5.7867   -2.4842 C   0  0  0  0  0  0  0  0  0  0  0  0
    3.6618   -4.7369   -4.0328 C   0  0  0  0  0  0  0  0  0  0  0  0
   -1.9282    3.4965    4.0294 C   0  0  0  0  0  0  0  0  0  0  0  0
   -0.9034    1.4542    4.9768 C   0  0  0  0  0  0  0  0  0  0  0  0
  1  2  1  0  0  0  0
  1 10  1  0  0  0  0
  1 16  1  0  0  0  0
  2  4  2  0  0  0  0
  2  9  1  0  0  0  0
  4  6  1  0  0  0  0
  6  7  2  0  0  0  0
  7  8  1  0  0  0  0
  8  9  2  0  0  0  0
 10 11  2  0  0  0  0
 10 15  1  0  0  0  0
 11 12  1  0  0  0  0
 12 13  2  0  0  0  0
 13  3  1  0  0  0  0
 13 14  1  0  0  0  0
 14 15  2  0  0  0  0
 16 17  2  0  0  0  0
 16 21  1  0  0  0  0
 17 18  1  0  0  0  0
 18 19  2  0  0  0  0
 19  5  1  0  0  0  0
 19 20  1  0  0  0  0
 20 21  2  0  0  0  0
 22  3  1  0  0  0  0
 23  3  1  0  0  0  0
 24  5  1  0  0  0  0
 25  5  1  0  0  0  0
M  END
>  <CHROM.1>
52.95893084,-161.68490083,17.08165562,18.09831615,-3.57073476,0.66291002
0.30215381,-1.11819938,0.07811115,1.19823656,-0.86345817

>  <Name>
1q8n_lig

>  <RI>
0

>  <Rbt.Current_Directory>
/home/itssahil/PROJECTS/Mol_Feturizer/New_Systems/rnas/1q8n

>  <Rbt.Executable>
rbdock ($Id: //depot/dev/client3/rdock/2013.1/src/exe/rbdock.cxx#4 $)

>  <Rbt.Library>
libRbt.so (2013.1, Build901 2013/11/27)

>  <Rbt.Parameter_File>
/export/apps/rDock/src/rDock_2013.1_src/data/scripts/dock_solv.prm

>  <Rbt.Receptor>
prm/pocket_docking_7.prm

>  <SCORE>
-53.0067

>  <SCORE.INTER>
-53.363

>  <SCORE.INTER.CONST>
1

>  <SCORE.INTER.POLAR>
0

>  <SCORE.INTER.ROT>
5

>  <SCORE.INTER.SOLV>
10.2612

>  <SCORE.INTER.VDW>
-45.9291

>  <SCORE.INTER.norm>
-2.13452

>  <SCORE.INTRA>
0.356284

>  <SCORE.INTRA.DIHEDRAL>
1.28268

>  <SCORE.INTRA.DIHEDRAL.0>
2.1627

>  <SCORE.INTRA.POLAR>
0

>  <SCORE.INTRA.POLAR.0>
0

>  <SCORE.INTRA.REPUL>
0

>  <SCORE.INTRA.REPUL.0>
0

>  <SCORE.INTRA.SOLV>
0.0186992

>  <SCORE.INTRA.SOLV.lig_0>
-5.95779

>  <SCORE.INTRA.VDW>
-0.294407

>  <SCORE.INTRA.VDW.0>
3.81702

>  <SCORE.INTRA.norm>
0.0142514

>  <SCORE.RESTR>
0

>  <SCORE.RESTR.CAVITY>
0

>  <SCORE.RESTR.norm>
0

>  <SCORE.SYSTEM>
0

>  <SCORE.SYSTEM.CONST>
0

>  <SCORE.SYSTEM.DIHEDRAL>
0

>  <SCORE.SYSTEM.SOLV>
0

>  <SCORE.SYSTEM.norm>
0

>  <SCORE.heavy>
25

>  <SCORE.norm>
-2.12027

>  <RMSD>
0.664

$$$$
1q8n_lig
 OpenBabel11021811403D
libRbt.so/2013.1/901 2013/11/27
 25 27  0  0  0  0  0  0  0  0999 V2000
    0.5686    0.9400   -1.7718 C   0  0  0  0  0  0  0  0  0  0  0  0
    0.5213    2.0342   -2.9826 C   0  0  0  0  0  0  0  0  0  0  0  0
    2.6163   -4.5127   -2.9954 N   0  0  0  0  0  0  0  0  0  0  0  0
   -0.1846    1.8551   -4.1248 C   0  0  0  0  0  0  0  0  0  0  0  0
   -1.0931    2.1287    3.8619 N   0  0  0  0  0  0  0  0  0  0  0  0
   -0.1961    2.8712   -5.2024 C   0  0  0  0  0  0  0  0  0  0  0  0
    0.5116    4.0146   -5.0547 C   0  0  0  0  0  0  0  0  0  0  0  0
    1.2658    4.2287   -3.8417 C   0  0  0  0  0  0  0  0  0  0  0  0
    1.2698    3.3042   -2.8783 C   0  0  0  0  0  0  0  0  0  0  0  0
    1.1288   -0.5558   -2.1021 C   0  0  0  0  0  0  0  0  0  0  0  0
    0.8898   -1.5913   -1.2709 C   0  0  0  0  0  0  0  0  0  0  0  0
    1.3934   -2.9635   -1.5563 C   0  0  0  0  0  0  0  0  0  0  0  0
    2.1154   -3.2069   -2.6827 C   0  0  0  0  0  0  0  0  0  0  0  0
    2.3828   -2.0848   -3.6022 C   0  0  0  0  0  0  0  0  0  0  0  0
    1.9237   -0.8556   -3.3290 C   0  0  0  0  0  0  0  0  0  0  0  0
    0.0646    1.3145   -0.2374 C   0  0  0  0  0  0  0  0  0  0  0  0
    0.5149    0.4716    0.9238 C   0  0  0  0  0  0  0  0  0  0  0  0
    0.1531    0.7248    2.1844 C   0  0  0  0  0  0  0  0  0  0  0  0
   -0.7201    1.8601    2.5046 C   0  0  0  0  0  0  0  0  0  0  0  0
   -1.1577    2.6451    1.4982 C   0  0  0  0  0  0  0  0  0  0  0  0
   -0.7564    2.3711    0.0774 C   0  0  0  0  0  0  0  0  0  0  0  0
    3.6458   -4.7233   -3.9671 C   0  0  0  0  0  0  0  0  0  0  0  0
    2.0894   -5.6633   -2.3293 C   0  0  0  0  0  0  0  0  0  0  0  0
   -0.6988    1.2351    4.9127 C   0  0  0  0  0  0  0  0  0  0  0  0
   -1.8653    3.3000    4.2100 C   0  0  0  0  0  0  0  0  0  0  0  0
  1  2  1  0  0  0  0
  1 10  1  0  0  0  0
  1 16  1  0  0  0  0
  2  4  2  0  0  0  0
  2  9  1  0  0  0  0
  4  6  1  0  0  0  0
  6  7  2  0  0  0  0
  7  8  1  0  0  0  0
  8  9  2  0  0  0  0
 10 11  2  0  0  0  0
 10 15  1  0  0  0  0
 11 12  1  0  0  0  0
 12 13  2  0  0  0  0
 13  3  1  0  0  0  0
 13 14  1  0  0  0  0
 14 15  2  0  0  0  0
 16 17  2  0  0  0  0
 16 21  1  0  0  0  0
 17 18  1  0  0  0  0
 18 19  2  0  0  0  0
 19  5  1  0  0  0  0
 19 20  1  0  0  0  0
 20 21  2  0  0  0  0
 22  3  1  0  0  0  0
 23  3  1  0  0  0  0
 24  5  1  0  0  0  0
 25  5  1  0  0  0  0
M  END
>  <CHROM.1>
59.29883415,-163.08135785,-160.46545764,-163.54261465,-4.60025521,0.65981888
0.31290405,-1.13561281,0.14019721,1.19521240,-0.89326140

>  <Name>
1q8n_lig

>  <RI>
0

>  <Rbt.Current_Directory>
/home/itssahil/PROJECTS/Mol_Feturizer/New_Systems/rnas/1q8n

>  <Rbt.Executable>
rbdock ($Id: //depot/dev/client3/rdock/2013.1/src/exe/rbdock.cxx#4 $)

>  <Rbt.Library>
libRbt.so (2013.1, Build901 2013/11/27)

>  <Rbt.Parameter_File>
/export/apps/rDock/src/rDock_2013.1_src/data/scripts/dock_solv.prm

>  <Rbt.Receptor>
prm/pocket_docking_2.prm

>  <SCORE>
-52.7867

>  <SCORE.INTER>
-53.6757

>  <SCORE.INTER.CONST>
1

>  <SCORE.INTER.POLAR>
0

>  <SCORE.INTER.ROT>
5

>  <SCORE.INTER.SOLV>
10.2403

>  <SCORE.INTER.VDW>
-46.1306

>  <SCORE.INTER.norm>
-2.14703

>  <SCORE.INTRA>
0.434824

>  <SCORE.INTRA.DIHEDRAL>
1.10993

>  <SCORE.INTRA.DIHEDRAL.0>
2.1627

>  <SCORE.INTRA.POLAR>
0

>  <SCORE.INTRA.POLAR.0>
0

>  <SCORE.INTRA.REPUL>
0

>  <SCORE.INTRA.REPUL.0>
0

>  <SCORE.INTRA.SOLV>
0.0158859

>  <SCORE.INTRA.SOLV.lig_0>
-5.95779

>  <SCORE.INTRA.VDW>
-0.128087

>  <SCORE.INTRA.VDW.0>
3.81702

>  <SCORE.INTRA.norm>
0.0173929

>  <SCORE.RESTR>
0.454156

>  <SCORE.RESTR.CAVITY>
0.454156

>  <SCORE.RESTR.norm>
0.0181663

>  <SCORE.SYSTEM>
0

>  <SCORE.SYSTEM.CONST>
0

>  <SCORE.SYSTEM.DIHEDRAL>
0

>  <SCORE.SYSTEM.SOLV>
0

>  <SCORE.SYSTEM.norm>
0

>  <SCORE.heavy>
25

>  <SCORE.norm>
-2.11147

>  <RMSD>
0.666

$$$$
1q8n_lig
 OpenBabel11021811413D
libRbt.so/2013.1/901 2013/11/27
 25 27  0  0  0  0  0  0  0  0999 V2000
    0.5821    0.8654   -1.6845 C   0  0  0  0  0  0  0  0  0  0  0  0
    0.5378    2.0075   -2.8504 C   0  0  0  0  0  0  0  0  0  0  0  0
   -1.2001    2.3344    3.8007 N   0  0  0  0  0  0  0  0  0  0  0  0
   -0.0554    1.8241   -4.0542 C   0  0  0  0  0  0  0  0  0  0  0  0
    2.5994   -4.6222   -2.9996 N   0  0  0  0  0  0  0  0  0  0  0  0
   -0.0682    2.8853   -5.0875 C   0  0  0  0  0  0  0  0  0  0  0  0
    0.5235    4.0753   -4.8352 C   0  0  0  0  0  0  0  0  0  0  0  0
    1.1560    4.2942   -3.5554 C   0  0  0  0  0  0  0  0  0  0  0  0
    1.1625    3.3290   -2.6327 C   0  0  0  0  0  0  0  0  0  0  0  0
    0.0928    1.2731   -0.1830 C   0  0  0  0  0  0  0  0  0  0  0  0
   -0.5838    2.4178    0.0454 C   0  0  0  0  0  0  0  0  0  0  0  0
   -1.0382    2.8060    1.4095 C   0  0  0  0  0  0  0  0  0  0  0  0
   -0.7787    1.9988    2.4727 C   0  0  0  0  0  0  0  0  0  0  0  0
   -0.0417    0.7427    2.2381 C   0  0  0  0  0  0  0  0  0  0  0  0
    0.3617    0.4095    1.0041 C   0  0  0  0  0  0  0  0  0  0  0  0
    1.1082   -0.6762   -1.9931 C   0  0  0  0  0  0  0  0  0  0  0  0
    1.7812   -0.9885   -3.3012 C   0  0  0  0  0  0  0  0  0  0  0  0
    2.2362   -2.2065   -3.6077 C   0  0  0  0  0  0  0  0  0  0  0  0
    2.0979   -3.3224   -2.6646 C   0  0  0  0  0  0  0  0  0  0  0  0
    1.4956   -3.0974   -1.4783 C   0  0  0  0  0  0  0  0  0  0  0  0
    0.9817   -1.7321   -1.1222 C   0  0  0  0  0  0  0  0  0  0  0  0
   -1.9369    3.5269    4.0898 C   0  0  0  0  0  0  0  0  0  0  0  0
   -0.8893    1.4669    4.8944 C   0  0  0  0  0  0  0  0  0  0  0  0
    2.0624   -5.7921   -2.3661 C   0  0  0  0  0  0  0  0  0  0  0  0
    3.6470   -4.7922   -3.9809 C   0  0  0  0  0  0  0  0  0  0  0  0
  1  2  1  0  0  0  0
  1 10  1  0  0  0  0
  1 16  1  0  0  0  0
  2  4  2  0  0  0  0
  2  9  1  0  0  0  0
  4  6  1  0  0  0  0
  6  7  2  0  0  0  0
  7  8  1  0  0  0  0
  8  9  2  0  0  0  0
 10 11  2  0  0  0  0
 10 15  1  0  0  0  0
 11 12  1  0  0  0  0
 12 13  2  0  0  0  0
 13  3  1  0  0  0  0
 13 14  1  0  0  0  0
 14 15  2  0  0  0  0
 16 17  2  0  0  0  0
 16 21  1  0  0  0  0
 17 18  1  0  0  0  0
 18 19  2  0  0  0  0
 19  5  1  0  0  0  0
 19 20  1  0  0  0  0
 20 21  2  0  0  0  0
 22  3  1  0  0  0  0
 23  3  1  0  0  0  0
 24  5  1  0  0  0  0
 25  5  1  0  0  0  0
M  END
>  <CHROM.1>
-128.68047748,13.45050063,10.63783404,0.97982189,-156.64810971,0.63622193
0.31078013,-1.08605445,3.11109996,-1.20070955,2.29548690

>  <Name>
1q8n_lig

>  <RI>
0

>  <Rbt.Current_Directory>
/home/itssahil/PROJECTS/Mol_Feturizer/New_Systems/rnas/1q8n

>  <Rbt.Executable>
rbdock ($Id: //depot/dev/client3/rdock/2013.1/src/exe/rbdock.cxx#4 $)

>  <Rbt.Library>
libRbt.so (2013.1, Build901 2013/11/27)

>  <Rbt.Parameter_File>
/export/apps/rDock/src/rDock_2013.1_src/data/scripts/dock_solv.prm

>  <Rbt.Receptor>
prm/pocket_docking_6.prm

>  <SCORE>
-52.1598

>  <SCORE.INTER>
-52.7532

>  <SCORE.INTER.CONST>
1

>  <SCORE.INTER.POLAR>
0

>  <SCORE.INTER.ROT>
5

>  <SCORE.INTER.SOLV>
10.399

>  <SCORE.INTER.VDW>
-45.5684

>  <SCORE.INTER.norm>
-2.11013

>  <SCORE.INTRA>
0.593387

>  <SCORE.INTRA.DIHEDRAL>
2.00942

>  <SCORE.INTRA.DIHEDRAL.0>
2.1627

>  <SCORE.INTRA.POLAR>
0

>  <SCORE.INTRA.POLAR.0>
0

>  <SCORE.INTRA.REPUL>
0

>  <SCORE.INTRA.REPUL.0>
0

>  <SCORE.INTRA.SOLV>
0.0291119

>  <SCORE.INTRA.SOLV.lig_0>
-5.95779

>  <SCORE.INTRA.VDW>
-0.425881

>  <SCORE.INTRA.VDW.0>
3.81702

>  <SCORE.INTRA.norm>
0.0237355

>  <SCORE.RESTR>
0

>  <SCORE.RESTR.CAVITY>
0

>  <SCORE.RESTR.norm>
0

>  <SCORE.SYSTEM>
0

>  <SCORE.SYSTEM.CONST>
0

>  <SCORE.SYSTEM.DIHEDRAL>
0

>  <SCORE.SYSTEM.SOLV>
0

>  <SCORE.SYSTEM.norm>
0

>  <SCORE.heavy>
25

>  <SCORE.norm>
-2.08639

>  <RMSD>
0.667

$$$$
1q8n_lig
 OpenBabel11021811403D
libRbt.so/2013.1/901 2013/11/27
 25 27  0  0  0  0  0  0  0  0999 V2000
    0.5433    0.8499   -1.6646 C   0  0  0  0  0  0  0  0  0  0  0  0
    0.4962    1.9871   -2.8351 C   0  0  0  0  0  0  0  0  0  0  0  0
   -1.2173    2.3445    3.8207 N   0  0  0  0  0  0  0  0  0  0  0  0
   -0.1402    1.8156   -4.0185 C   0  0  0  0  0  0  0  0  0  0  0  0
    2.5508   -4.6455   -2.9622 N   0  0  0  0  0  0  0  0  0  0  0  0
   -0.1541    2.8716   -5.0571 C   0  0  0  0  0  0  0  0  0  0  0  0
    0.4806    4.0445   -4.8306 C   0  0  0  0  0  0  0  0  0  0  0  0
    1.1597    4.2507   -3.5727 C   0  0  0  0  0  0  0  0  0  0  0  0
    1.1666    3.2903   -2.6450 C   0  0  0  0  0  0  0  0  0  0  0  0
    0.0601    1.2646   -0.1630 C   0  0  0  0  0  0  0  0  0  0  0  0
   -0.5807    2.4291    0.0689 C   0  0  0  0  0  0  0  0  0  0  0  0
   -1.0290    2.8239    1.4330 C   0  0  0  0  0  0  0  0  0  0  0  0
   -0.8005    2.0030    2.4928 C   0  0  0  0  0  0  0  0  0  0  0  0
   -0.1028    0.7253    2.2544 C   0  0  0  0  0  0  0  0  0  0  0  0
    0.2956    0.3862    1.0203 C   0  0  0  0  0  0  0  0  0  0  0  0
    1.0663   -0.6937   -1.9685 C   0  0  0  0  0  0  0  0  0  0  0  0
    1.7463   -1.0094   -3.2721 C   0  0  0  0  0  0  0  0  0  0  0  0
    2.1993   -2.2291   -3.5747 C   0  0  0  0  0  0  0  0  0  0  0  0
    2.0515   -3.3437   -2.6315 C   0  0  0  0  0  0  0  0  0  0  0  0
    1.4427   -3.1156   -1.4492 C   0  0  0  0  0  0  0  0  0  0  0  0
    0.9309   -1.7484   -1.0974 C   0  0  0  0  0  0  0  0  0  0  0  0
   -0.9124    1.5225    4.9521 C   0  0  0  0  0  0  0  0  0  0  0  0
   -1.9638    3.5417    4.0544 C   0  0  0  0  0  0  0  0  0  0  0  0
    3.5978   -4.7959   -3.9315 C   0  0  0  0  0  0  0  0  0  0  0  0
    2.0236   -5.8340   -2.3306 C   0  0  0  0  0  0  0  0  0  0  0  0
  1  2  1  0  0  0  0
  1 10  1  0  0  0  0
  1 16  1  0  0  0  0
  2  4  2  0  0  0  0
  2  9  1  0  0  0  0
  4  6  1  0  0  0  0
  6  7  2  0  0  0  0
  7  8  1  0  0  0  0
  8  9  2  0  0  0  0
 10 11  2  0  0  0  0
 10 15  1  0  0  0  0
 11 12  1  0  0  0  0
 12 13  2  0  0  0  0
 13  3  1  0  0  0  0
 13 14  1  0  0  0  0
 14 15  2  0  0  0  0
 16 17  2  0  0  0  0
 16 21  1  0  0  0  0
 17 18  1  0  0  0  0
 18 19  2  0  0  0  0
 19  5  1  0  0  0  0
 19 20  1  0  0  0  0
 20 21  2  0  0  0  0
 22  3  1  0  0  0  0
 23  3  1  0  0  0  0
 24  5  1  0  0  0  0
 25  5  1  0  0  0  0
M  END
>  <CHROM.1>
-126.38491727,11.54237080,11.24614381,-176.30193732,23.14080877,0.59936036
0.29957745,-1.06453648,3.11066647,-1.20341452,2.29016284

>  <Name>
1q8n_lig

>  <RI>
0

>  <Rbt.Current_Directory>
/home/itssahil/PROJECTS/Mol_Feturizer/New_Systems/rnas/1q8n

>  <Rbt.Executable>
rbdock ($Id: //depot/dev/client3/rdock/2013.1/src/exe/rbdock.cxx#4 $)

>  <Rbt.Library>
libRbt.so (2013.1, Build901 2013/11/27)

>  <Rbt.Parameter_File>
/export/apps/rDock/src/rDock_2013.1_src/data/scripts/dock_solv.prm

>  <Rbt.Receptor>
prm/pocket_docking_3.prm

>  <SCORE>
-52.0782

>  <SCORE.INTER>
-52.6327

>  <SCORE.INTER.CONST>
1

>  <SCORE.INTER.POLAR>
0

>  <SCORE.INTER.ROT>
5

>  <SCORE.INTER.SOLV>
10.3941

>  <SCORE.INTER.VDW>
-45.4865

>  <SCORE.INTER.norm>
-2.10531

>  <SCORE.INTRA>
0.554509

>  <SCORE.INTRA.DIHEDRAL>
2.02485

>  <SCORE.INTRA.DIHEDRAL.0>
2.1627

>  <SCORE.INTRA.POLAR>
0

>  <SCORE.INTRA.POLAR.0>
0

>  <SCORE.INTRA.REPUL>
0

>  <SCORE.INTRA.REPUL.0>
0

>  <SCORE.INTRA.SOLV>
0.0265918

>  <SCORE.INTRA.SOLV.lig_0>
-5.95779

>  <SCORE.INTRA.VDW>
-0.471212

>  <SCORE.INTRA.VDW.0>
3.81702

>  <SCORE.INTRA.norm>
0.0221804

>  <SCORE.RESTR>
0

>  <SCORE.RESTR.CAVITY>
0

>  <SCORE.RESTR.norm>
0

>  <SCORE.SYSTEM>
0

>  <SCORE.SYSTEM.CONST>
0

>  <SCORE.SYSTEM.DIHEDRAL>
0

>  <SCORE.SYSTEM.SOLV>
0

>  <SCORE.SYSTEM.norm>
0

>  <SCORE.heavy>
25

>  <SCORE.norm>
-2.08313

>  <RMSD>
0.668

$$$$
1q8n_lig
 OpenBabel11021811403D
libRbt.so/2013.1/901 2013/11/27
 25 27  0  0  0  0  0  0  0  0999 V2000
    0.4900    0.9326   -1.6688 C   0  0  0  0  0  0  0  0  0  0  0  0
    0.4579    2.0000   -2.9039 C   0  0  0  0  0  0  0  0  0  0  0  0
    2.4584   -4.5827   -2.7309 N   0  0  0  0  0  0  0  0  0  0  0  0
   -0.1965    1.7760   -4.0686 C   0  0  0  0  0  0  0  0  0  0  0  0
   -1.1662    2.2610    3.9352 N   0  0  0  0  0  0  0  0  0  0  0  0
   -0.1958    2.7692   -5.1674 C   0  0  0  0  0  0  0  0  0  0  0  0
    0.4710    3.9365   -5.0169 C   0  0  0  0  0  0  0  0  0  0  0  0
    1.1698    4.1984   -3.7804 C   0  0  0  0  0  0  0  0  0  0  0  0
    1.1633    3.2942   -2.7978 C   0  0  0  0  0  0  0  0  0  0  0  0
    1.0298   -0.5777   -1.9652 C   0  0  0  0  0  0  0  0  0  0  0  0
    1.6151   -0.8934   -3.1390 C   0  0  0  0  0  0  0  0  0  0  0  0
    2.1138   -2.2669   -3.4268 C   0  0  0  0  0  0  0  0  0  0  0  0
    1.9901   -3.2491   -2.4945 C   0  0  0  0  0  0  0  0  0  0  0  0
    1.3541   -2.9183   -1.2053 C   0  0  0  0  0  0  0  0  0  0  0  0
    0.9091   -1.6773   -0.9634 C   0  0  0  0  0  0  0  0  0  0  0  0
   -0.0093    1.3482   -0.1435 C   0  0  0  0  0  0  0  0  0  0  0  0
    0.3735    0.4874    1.0287 C   0  0  0  0  0  0  0  0  0  0  0  0
    0.0121    0.7713    2.2830 C   0  0  0  0  0  0  0  0  0  0  0  0
   -0.7934    1.9604    2.5847 C   0  0  0  0  0  0  0  0  0  0  0  0
   -1.1691    2.7637    1.5678 C   0  0  0  0  0  0  0  0  0  0  0  0
   -0.7675    2.4555    0.1540 C   0  0  0  0  0  0  0  0  0  0  0  0
    1.9902   -5.7024   -1.9722 C   0  0  0  0  0  0  0  0  0  0  0  0
    3.4258   -4.8343   -3.7537 C   0  0  0  0  0  0  0  0  0  0  0  0
   -1.9080    3.4519    4.2348 C   0  0  0  0  0  0  0  0  0  0  0  0
   -0.8146    1.3785    5.0247 C   0  0  0  0  0  0  0  0  0  0  0  0
  1  2  1  0  0  0  0
  1 10  1  0  0  0  0
  1 16  1  0  0  0  0
  2  4  2  0  0  0  0
  2  9  1  0  0  0  0
  4  6  1  0  0  0  0
  6  7  2  0  0  0  0
  7  8  1  0  0  0  0
  8  9  2  0  0  0  0
 10 11  2  0  0  0  0
 10 15  1  0  0  0  0
 11 12  1  0  0  0  0
 12 13  2  0  0  0  0
 13  3  1  0  0  0  0
 13 14  1  0  0  0  0
 14 15  2  0  0  0  0
 16 17  2  0  0  0  0
 16 21  1  0  0  0  0
 17 18  1  0  0  0  0
 18 19  2  0  0  0  0
 19  5  1  0  0  0  0
 19 20  1  0  0  0  0
 20 21  2  0  0  0  0
 22  3  1  0  0  0  0
 23  3  1  0  0  0  0
 24  5  1  0  0  0  0
 25  5  1  0  0  0  0
M  END
>  <CHROM.1>
55.93276111,9.44938157,-163.44439474,-160.35432927,177.49732418,0.56380095
0.31155592,-0.99927103,0.11482042,1.20648497,-0.89918515

>  <Name>
1q8n_lig

>  <RI>
0

>  <Rbt.Current_Directory>
/home/itssahil/PROJECTS/Mol_Feturizer/New_Systems/rnas/1q8n

>  <Rbt.Executable>
rbdock ($Id: //depot/dev/client3/rdock/2013.1/src/exe/rbdock.cxx#4 $)

>  <Rbt.Library>
libRbt.so (2013.1, Build901 2013/11/27)

>  <Rbt.Parameter_File>
/export/apps/rDock/src/rDock_2013.1_src/data/scripts/dock_solv.prm

>  <Rbt.Receptor>
prm/pocket_docking_4.prm

>  <SCORE>
-53.5927

>  <SCORE.INTER>
-54.2904

>  <SCORE.INTER.CONST>
1

>  <SCORE.INTER.POLAR>
0

>  <SCORE.INTER.ROT>
5

>  <SCORE.INTER.SOLV>
10.2806

>  <SCORE.INTER.VDW>
-46.5538

>  <SCORE.INTER.norm>
-2.17161

>  <SCORE.INTRA>
0.697628

>  <SCORE.INTRA.DIHEDRAL>
1.4701

>  <SCORE.INTRA.DIHEDRAL.0>
2.1627

>  <SCORE.INTRA.POLAR>
0

>  <SCORE.INTRA.POLAR.0>
0

>  <SCORE.INTRA.REPUL>
0

>  <SCORE.INTRA.REPUL.0>
0

>  <SCORE.INTRA.SOLV>
0.0267644

>  <SCORE.INTRA.SOLV.lig_0>
-5.95779

>  <SCORE.INTRA.VDW>
-0.0508018

>  <SCORE.INTRA.VDW.0>
3.81702

>  <SCORE.INTRA.norm>
0.0279051

>  <SCORE.RESTR>
0

>  <SCORE.RESTR.CAVITY>
0

>  <SCORE.RESTR.norm>
0

>  <SCORE.SYSTEM>
0

>  <SCORE.SYSTEM.CONST>
0

>  <SCORE.SYSTEM.DIHEDRAL>
0

>  <SCORE.SYSTEM.SOLV>
0

>  <SCORE.SYSTEM.norm>
0

>  <SCORE.heavy>
25

>  <SCORE.norm>
-2.14371

>  <RMSD>
0.668

$$$$
1q8n_lig
 OpenBabel11021811403D
libRbt.so/2013.1/901 2013/11/27
 25 27  0  0  0  0  0  0  0  0999 V2000
    0.4956    0.9379   -1.6512 C   0  0  0  0  0  0  0  0  0  0  0  0
    0.4615    2.0084   -2.8834 C   0  0  0  0  0  0  0  0  0  0  0  0
    2.4897   -4.5584   -2.7631 N   0  0  0  0  0  0  0  0  0  0  0  0
   -0.1812    1.7807   -4.0538 C   0  0  0  0  0  0  0  0  0  0  0  0
   -1.1724    2.2469    3.9540 N   0  0  0  0  0  0  0  0  0  0  0  0
   -0.1828    2.7770   -5.1498 C   0  0  0  0  0  0  0  0  0  0  0  0
    0.4700    3.9511   -4.9908 C   0  0  0  0  0  0  0  0  0  0  0  0
    1.1561    4.2171   -3.7481 C   0  0  0  0  0  0  0  0  0  0  0  0
    1.1518    3.3100   -2.7681 C   0  0  0  0  0  0  0  0  0  0  0  0
    1.0414   -0.5696   -1.9507 C   0  0  0  0  0  0  0  0  0  0  0  0
    0.8680   -1.5664   -1.0581 C   0  0  0  0  0  0  0  0  0  0  0  0
    1.3597   -2.9485   -1.3147 C   0  0  0  0  0  0  0  0  0  0  0  0
    2.0031   -3.2413   -2.4764 C   0  0  0  0  0  0  0  0  0  0  0  0
    2.1981   -2.1621   -3.4630 C   0  0  0  0  0  0  0  0  0  0  0  0
    1.7508   -0.9231   -3.2152 C   0  0  0  0  0  0  0  0  0  0  0  0
   -0.0077    1.3475   -0.1255 C   0  0  0  0  0  0  0  0  0  0  0  0
    0.3883    0.4929    1.0468 C   0  0  0  0  0  0  0  0  0  0  0  0
    0.0245    0.7725    2.3013 C   0  0  0  0  0  0  0  0  0  0  0  0
   -0.7970    1.9506    2.6032 C   0  0  0  0  0  0  0  0  0  0  0  0
   -1.1849    2.7480    1.5862 C   0  0  0  0  0  0  0  0  0  0  0  0
   -0.7807    2.4445    0.1722 C   0  0  0  0  0  0  0  0  0  0  0  0
    3.4529   -4.8098   -3.7915 C   0  0  0  0  0  0  0  0  0  0  0  0
    2.0158   -5.6792   -2.0118 C   0  0  0  0  0  0  0  0  0  0  0  0
   -1.9251    3.4307    4.2544 C   0  0  0  0  0  0  0  0  0  0  0  0
   -0.8123    1.3670    5.0429 C   0  0  0  0  0  0  0  0  0  0  0  0
  1  2  1  0  0  0  0
  1 10  1  0  0  0  0
  1 16  1  0  0  0  0
  2  4  2  0  0  0  0
  2  9  1  0  0  0  0
  4  6  1  0  0  0  0
  6  7  2  0  0  0  0
  7  8  1  0  0  0  0
  8  9  2  0  0  0  0
 10 11  2  0  0  0  0
 10 15  1  0  0  0  0
 11 12  1  0  0  0  0
 12 13  2  0  0  0  0
 13  3  1  0  0  0  0
 13 14  1  0  0  0  0
 14 15  2  0  0  0  0
 16 17  2  0  0  0  0
 16 21  1  0  0  0  0
 17 18  1  0  0  0  0
 18 19  2  0  0  0  0
 19  5  1  0  0  0  0
 19 20  1  0  0  0  0
 20 21  2  0  0  0  0
 22  3  1  0  0  0  0
 23  3  1  0  0  0  0
 24  5  1  0  0  0  0
 25  5  1  0  0  0  0
M  END
>  <CHROM.1>
55.38437973,-167.56012653,-162.81800607,-163.38182710,177.22636115,0.57504501
0.32114578,-1.00254145,0.12250436,1.20249447,-0.89612157

>  <Name>
1q8n_lig

>  <RI>
0

>  <Rbt.Current_Directory>
/home/itssahil/PROJECTS/Mol_Feturizer/New_Systems/rnas/1q8n

>  <Rbt.Executable>
rbdock ($Id: //depot/dev/client3/rdock/2013.1/src/exe/rbdock.cxx#4 $)

>  <Rbt.Library>
libRbt.so (2013.1, Build901 2013/11/27)

>  <Rbt.Parameter_File>
/export/apps/rDock/src/rDock_2013.1_src/data/scripts/dock_solv.prm

>  <Rbt.Receptor>
prm/pocket_docking_3.prm

>  <SCORE>
-53.3981

>  <SCORE.INTER>
-54.0393

>  <SCORE.INTER.CONST>
1

>  <SCORE.INTER.POLAR>
0

>  <SCORE.INTER.ROT>
5

>  <SCORE.INTER.SOLV>
10.2991

>  <SCORE.INTER.VDW>
-46.3926

>  <SCORE.INTER.norm>
-2.16157

>  <SCORE.INTRA>
0.641185

>  <SCORE.INTRA.DIHEDRAL>
1.07677

>  <SCORE.INTRA.DIHEDRAL.0>
2.1627

>  <SCORE.INTRA.POLAR>
0

>  <SCORE.INTRA.POLAR.0>
0

>  <SCORE.INTRA.REPUL>
0

>  <SCORE.INTRA.REPUL.0>
0

>  <SCORE.INTRA.SOLV>
0.0244703

>  <SCORE.INTRA.SOLV.lig_0>
-5.95779

>  <SCORE.INTRA.VDW>
0.090564

>  <SCORE.INTRA.VDW.0>
3.81702

>  <SCORE.INTRA.norm>
0.0256474

>  <SCORE.RESTR>
0

>  <SCORE.RESTR.CAVITY>
0

>  <SCORE.RESTR.norm>
0

>  <SCORE.SYSTEM>
0

>  <SCORE.SYSTEM.CONST>
0

>  <SCORE.SYSTEM.DIHEDRAL>
0

>  <SCORE.SYSTEM.SOLV>
0

>  <SCORE.SYSTEM.norm>
0

>  <SCORE.heavy>
25

>  <SCORE.norm>
-2.13592

>  <RMSD>
0.669

$$$$
1q8n_lig
 OpenBabel11021811403D
libRbt.so/2013.1/901 2013/11/27
 25 27  0  0  0  0  0  0  0  0999 V2000
    0.6570    0.8853   -1.6682 C   0  0  0  0  0  0  0  0  0  0  0  0
    0.6056    2.0072   -2.8532 C   0  0  0  0  0  0  0  0  0  0  0  0
    2.6096   -4.5653   -3.0466 N   0  0  0  0  0  0  0  0  0  0  0  0
    1.2230    3.2100   -2.7711 C   0  0  0  0  0  0  0  0  0  0  0  0
   -1.1799    2.3329    3.8494 N   0  0  0  0  0  0  0  0  0  0  0  0
    1.1466    4.2028   -3.8676 C   0  0  0  0  0  0  0  0  0  0  0  0
    0.4459    3.9132   -4.9880 C   0  0  0  0  0  0  0  0  0  0  0  0
   -0.2145    2.6336   -5.0990 C   0  0  0  0  0  0  0  0  0  0  0  0
   -0.1398    1.7476   -4.1027 C   0  0  0  0  0  0  0  0  0  0  0  0
    1.1912   -0.6099   -2.0408 C   0  0  0  0  0  0  0  0  0  0  0  0
    0.9709   -1.6565   -1.2183 C   0  0  0  0  0  0  0  0  0  0  0  0
    1.4513   -3.0284   -1.5424 C   0  0  0  0  0  0  0  0  0  0  0  0
    2.1321   -3.2602   -2.6965 C   0  0  0  0  0  0  0  0  0  0  0  0
    2.3788   -2.1260   -3.6069 C   0  0  0  0  0  0  0  0  0  0  0  0
    1.9409   -0.8972   -3.2989 C   0  0  0  0  0  0  0  0  0  0  0  0
    0.1824    1.2317   -0.1178 C   0  0  0  0  0  0  0  0  0  0  0  0
   -0.4977    2.5392    0.1811 C   0  0  0  0  0  0  0  0  0  0  0  0
   -0.9129    2.8750    1.4056 C   0  0  0  0  0  0  0  0  0  0  0  0
   -0.7208    1.9668    2.5422 C   0  0  0  0  0  0  0  0  0  0  0  0
   -0.1100    0.7827    2.3296 C   0  0  0  0  0  0  0  0  0  0  0  0
    0.3595    0.3938    0.9573 C   0  0  0  0  0  0  0  0  0  0  0  0
    2.0807   -5.7563   -2.4548 C   0  0  0  0  0  0  0  0  0  0  0  0
    3.6484   -4.7140   -4.0182 C   0  0  0  0  0  0  0  0  0  0  0  0
   -1.9452    3.5314    4.0400 C   0  0  0  0  0  0  0  0  0  0  0  0
   -0.8935    1.5101    5.0028 C   0  0  0  0  0  0  0  0  0  0  0  0
  1  2  1  0  0  0  0
  1 10  1  0  0  0  0
  1 16  1  0  0  0  0
  2  4  2  0  0  0  0
  2  9  1  0  0  0  0
  4  6  1  0  0  0  0
  6  7  2  0  0  0  0
  7  8  1  0  0  0  0
  8  9  2  0  0  0  0
 10 11  2  0  0  0  0
 10 15  1  0  0  0  0
 11 12  1  0  0  0  0
 12 13  2  0  0  0  0
 13  3  1  0  0  0  0
 13 14  1  0  0  0  0
 14 15  2  0  0  0  0
 16 17  2  0  0  0  0
 16 21  1  0  0  0  0
 17 18  1  0  0  0  0
 18 19  2  0  0  0  0
 19  5  1  0  0  0  0
 19 20  1  0  0  0  0
 20 21  2  0  0  0  0
 22  3  1  0  0  0  0
 23  3  1  0  0  0  0
 24  5  1  0  0  0  0
 25  5  1  0  0  0  0
M  END
>  <CHROM.1>
-124.59642746,-164.22009497,8.98036162,19.42669480,5.99442149,0.65801931
0.31658369,-1.11187826,0.10951252,1.19944471,-0.88562262

>  <Name>
1q8n_lig

>  <RI>
0

>  <Rbt.Current_Directory>
/home/itssahil/PROJECTS/Mol_Feturizer/New_Systems/rnas/1q8n

>  <Rbt.Executable>
rbdock ($Id: //depot/dev/client3/rdock/2013.1/src/exe/rbdock.cxx#4 $)

>  <Rbt.Library>
libRbt.so (2013.1, Build901 2013/11/27)

>  <Rbt.Parameter_File>
/export/apps/rDock/src/rDock_2013.1_src/data/scripts/dock_solv.prm

>  <Rbt.Receptor>
prm/pocket_docking_4.prm

>  <SCORE>
-53.8365

>  <SCORE.INTER>
-54.3422

>  <SCORE.INTER.CONST>
1

>  <SCORE.INTER.POLAR>
0

>  <SCORE.INTER.ROT>
5

>  <SCORE.INTER.SOLV>
10.1867

>  <SCORE.INTER.VDW>
-46.5571

>  <SCORE.INTER.norm>
-2.17369

>  <SCORE.INTRA>
0.505754

>  <SCORE.INTRA.DIHEDRAL>
1.5532

>  <SCORE.INTRA.DIHEDRAL.0>
2.1627

>  <SCORE.INTRA.POLAR>
0

>  <SCORE.INTRA.POLAR.0>
0

>  <SCORE.INTRA.REPUL>
0

>  <SCORE.INTRA.REPUL.0>
0

>  <SCORE.INTRA.SOLV>
0.0220232

>  <SCORE.INTRA.SOLV.lig_0>
-5.95779

>  <SCORE.INTRA.VDW>
-0.281858

>  <SCORE.INTRA.VDW.0>
3.81702

>  <SCORE.INTRA.norm>
0.0202302

>  <SCORE.RESTR>
0

>  <SCORE.RESTR.CAVITY>
0

>  <SCORE.RESTR.norm>
0

>  <SCORE.SYSTEM>
0

>  <SCORE.SYSTEM.CONST>
0

>  <SCORE.SYSTEM.DIHEDRAL>
0

>  <SCORE.SYSTEM.SOLV>
0

>  <SCORE.SYSTEM.norm>
0

>  <SCORE.heavy>
25

>  <SCORE.norm>
-2.15346

>  <RMSD>
0.669

$$$$
1q8n_lig
 OpenBabel11021811403D
libRbt.so/2013.1/901 2013/11/27
 25 27  0  0  0  0  0  0  0  0999 V2000
    0.4925    0.9439   -1.6444 C   0  0  0  0  0  0  0  0  0  0  0  0
    0.4616    2.0145   -2.8767 C   0  0  0  0  0  0  0  0  0  0  0  0
    2.4807   -4.5551   -2.7537 N   0  0  0  0  0  0  0  0  0  0  0  0
   -0.1712    1.7834   -4.0519 C   0  0  0  0  0  0  0  0  0  0  0  0
   -1.1809    2.2556    3.9584 N   0  0  0  0  0  0  0  0  0  0  0  0
   -0.1702    2.7799   -5.1477 C   0  0  0  0  0  0  0  0  0  0  0  0
    0.4747    3.9577   -4.9836 C   0  0  0  0  0  0  0  0  0  0  0  0
    1.1501    4.2272   -3.7358 C   0  0  0  0  0  0  0  0  0  0  0  0
    1.1437    3.3199   -2.7560 C   0  0  0  0  0  0  0  0  0  0  0  0
    1.0369   -0.5643   -1.9432 C   0  0  0  0  0  0  0  0  0  0  0  0
    0.8824   -1.5551   -1.0405 C   0  0  0  0  0  0  0  0  0  0  0  0
    1.3730   -2.9378   -1.2963 C   0  0  0  0  0  0  0  0  0  0  0  0
    1.9958   -3.2372   -2.4675 C   0  0  0  0  0  0  0  0  0  0  0  0
    2.1700   -2.1646   -3.4651 C   0  0  0  0  0  0  0  0  0  0  0  0
    1.7240   -0.9250   -3.2179 C   0  0  0  0  0  0  0  0  0  0  0  0
   -0.0123    1.3542   -0.1195 C   0  0  0  0  0  0  0  0  0  0  0  0
    0.3845    0.5013    1.0539 C   0  0  0  0  0  0  0  0  0  0  0  0
    0.0194    0.7816    2.3079 C   0  0  0  0  0  0  0  0  0  0  0  0
   -0.8042    1.9586    2.6082 C   0  0  0  0  0  0  0  0  0  0  0  0
   -1.1929    2.7543    1.5902 C   0  0  0  0  0  0  0  0  0  0  0  0
   -0.7873    2.4501    0.1767 C   0  0  0  0  0  0  0  0  0  0  0  0
    3.4375   -4.8092   -3.7873 C   0  0  0  0  0  0  0  0  0  0  0  0
    2.0113   -5.6739   -1.9966 C   0  0  0  0  0  0  0  0  0  0  0  0
   -1.9227    3.4462    4.2593 C   0  0  0  0  0  0  0  0  0  0  0  0
   -0.8331    1.3697    5.0465 C   0  0  0  0  0  0  0  0  0  0  0  0
  1  2  1  0  0  0  0
  1 10  1  0  0  0  0
  1 16  1  0  0  0  0
  2  4  2  0  0  0  0
  2  9  1  0  0  0  0
  4  6  1  0  0  0  0
  6  7  2  0  0  0  0
  7  8  1  0  0  0  0
  8  9  2  0  0  0  0
 10 11  2  0  0  0  0
 10 15  1  0  0  0  0
 11 12  1  0  0  0  0
 12 13  2  0  0  0  0
 13  3  1  0  0  0  0
 13 14  1  0  0  0  0
 14 15  2  0  0  0  0
 16 17  2  0  0  0  0
 16 21  1  0  0  0  0
 17 18  1  0  0  0  0
 18 19  2  0  0  0  0
 19  5  1  0  0  0  0
 19 20  1  0  0  0  0
 20 21  2  0  0  0  0
 22  3  1  0  0  0  0
 23  3  1  0  0  0  0
 24  5  1  0  0  0  0
 25  5  1  0  0  0  0
M  END
>  <CHROM.1>
54.85803549,-168.77805333,-162.63158068,-162.62493712,176.51425184,0.57010869
0.32719784,-0.99567907,0.11917038,1.20300979,-0.89322560

>  <Name>
1q8n_lig

>  <RI>
0

>  <Rbt.Current_Directory>
/home/itssahil/PROJECTS/Mol_Feturizer/New_Systems/rnas/1q8n

>  <Rbt.Executable>
rbdock ($Id: //depot/dev/client3/rdock/2013.1/src/exe/rbdock.cxx#4 $)

>  <Rbt.Library>
libRbt.so (2013.1, Build901 2013/11/27)

>  <Rbt.Parameter_File>
/export/apps/rDock/src/rDock_2013.1_src/data/scripts/dock_solv.prm

>  <Rbt.Receptor>
prm/pocket_docking_3.prm

>  <SCORE>
-53.3839

>  <SCORE.INTER>
-54.0656

>  <SCORE.INTER.CONST>
1

>  <SCORE.INTER.POLAR>
0

>  <SCORE.INTER.ROT>
5

>  <SCORE.INTER.SOLV>
10.3254

>  <SCORE.INTER.VDW>
-46.4189

>  <SCORE.INTER.norm>
-2.16262

>  <SCORE.INTRA>
0.681694

>  <SCORE.INTRA.DIHEDRAL>
1.18868

>  <SCORE.INTRA.DIHEDRAL.0>
2.1627

>  <SCORE.INTRA.POLAR>
0

>  <SCORE.INTRA.POLAR.0>
0

>  <SCORE.INTRA.REPUL>
0

>  <SCORE.INTRA.REPUL.0>
0

>  <SCORE.INTRA.SOLV>
0.0255391

>  <SCORE.INTRA.SOLV.lig_0>
-5.95779

>  <SCORE.INTRA.VDW>
0.0745855

>  <SCORE.INTRA.VDW.0>
3.81702

>  <SCORE.INTRA.norm>
0.0272678

>  <SCORE.RESTR>
0

>  <SCORE.RESTR.CAVITY>
0

>  <SCORE.RESTR.norm>
0

>  <SCORE.SYSTEM>
0

>  <SCORE.SYSTEM.CONST>
0

>  <SCORE.SYSTEM.DIHEDRAL>
0

>  <SCORE.SYSTEM.SOLV>
0

>  <SCORE.SYSTEM.norm>
0

>  <SCORE.heavy>
25

>  <SCORE.norm>
-2.13535

>  <RMSD>
0.670

$$$$
1q8n_lig
 OpenBabel11021811403D
libRbt.so/2013.1/901 2013/11/27
 25 27  0  0  0  0  0  0  0  0999 V2000
    0.4770    0.9356   -1.6352 C   0  0  0  0  0  0  0  0  0  0  0  0
    0.4460    2.0009   -2.8720 C   0  0  0  0  0  0  0  0  0  0  0  0
    2.4655   -4.5679   -2.7210 N   0  0  0  0  0  0  0  0  0  0  0  0
   -0.1774    1.7604   -4.0503 C   0  0  0  0  0  0  0  0  0  0  0  0
   -1.1999    2.2682    3.9617 N   0  0  0  0  0  0  0  0  0  0  0  0
   -0.1769    2.7525   -5.1501 C   0  0  0  0  0  0  0  0  0  0  0  0
    0.4583    3.9357   -4.9867 C   0  0  0  0  0  0  0  0  0  0  0  0
    1.1236    4.2152   -3.7357 C   0  0  0  0  0  0  0  0  0  0  0  0
    1.1176    3.3119   -2.7523 C   0  0  0  0  0  0  0  0  0  0  0  0
    1.0214   -0.5738   -1.9275 C   0  0  0  0  0  0  0  0  0  0  0  0
    0.8752   -1.5586   -1.0170 C   0  0  0  0  0  0  0  0  0  0  0  0
    1.3660   -2.9423   -1.2668 C   0  0  0  0  0  0  0  0  0  0  0  0
    1.9807   -3.2488   -2.4404 C   0  0  0  0  0  0  0  0  0  0  0  0
    2.1459   -2.1829   -3.4466 C   0  0  0  0  0  0  0  0  0  0  0  0
    1.6998   -0.9423   -3.2047 C   0  0  0  0  0  0  0  0  0  0  0  0
   -0.0280    1.3523   -0.1120 C   0  0  0  0  0  0  0  0  0  0  0  0
    0.3513    0.4929    1.0624 C   0  0  0  0  0  0  0  0  0  0  0  0
   -0.0147    0.7778    2.3151 C   0  0  0  0  0  0  0  0  0  0  0  0
   -0.8221    1.9666    2.6127 C   0  0  0  0  0  0  0  0  0  0  0  0
   -1.1948    2.7686    1.5938 C   0  0  0  0  0  0  0  0  0  0  0  0
   -0.7880    2.4594    0.1817 C   0  0  0  0  0  0  0  0  0  0  0  0
    3.4308   -4.8249   -3.7460 C   0  0  0  0  0  0  0  0  0  0  0  0
    1.9875   -5.6850   -1.9669 C   0  0  0  0  0  0  0  0  0  0  0  0
   -1.9516    3.4541    4.2563 C   0  0  0  0  0  0  0  0  0  0  0  0
   -0.8434    1.3917    5.0545 C   0  0  0  0  0  0  0  0  0  0  0  0
  1  2  1  0  0  0  0
  1 10  1  0  0  0  0
  1 16  1  0  0  0  0
  2  4  2  0  0  0  0
  2  9  1  0  0  0  0
  4  6  1  0  0  0  0
  6  7  2  0  0  0  0
  7  8  1  0  0  0  0
  8  9  2  0  0  0  0
 10 11  2  0  0  0  0
 10 15  1  0  0  0  0
 11 12  1  0  0  0  0
 12 13  2  0  0  0  0
 13  3  1  0  0  0  0
 13 14  1  0  0  0  0
 14 15  2  0  0  0  0
 16 17  2  0  0  0  0
 16 21  1  0  0  0  0
 17 18  1  0  0  0  0
 18 19  2  0  0  0  0
 19  5  1  0  0  0  0
 19 20  1  0  0  0  0
 20 21  2  0  0  0  0
 22  3  1  0  0  0  0
 23  3  1  0  0  0  0
 24  5  1  0  0  0  0
 25  5  1  0  0  0  0
M  END
>  <CHROM.1>
54.30166828,-169.23563550,-163.55834933,-161.62717859,177.93818775,0.55353479
0.32106781,-0.98387931,0.11817348,1.20280806,-0.89643382

>  <Name>
1q8n_lig

>  <RI>
0

>  <Rbt.Current_Directory>
/home/itssahil/PROJECTS/Mol_Feturizer/New_Systems/rnas/1q8n

>  <Rbt.Executable>
rbdock ($Id: //depot/dev/client3/rdock/2013.1/src/exe/rbdock.cxx#4 $)

>  <Rbt.Library>
libRbt.so (2013.1, Build901 2013/11/27)

>  <Rbt.Parameter_File>
/export/apps/rDock/src/rDock_2013.1_src/data/scripts/dock_solv.prm

>  <Rbt.Receptor>
prm/blind_docking_40.prm

>  <SCORE>
-53.3685

>  <SCORE.INTER>
-54.1008

>  <SCORE.INTER.CONST>
1

>  <SCORE.INTER.POLAR>
0

>  <SCORE.INTER.ROT>
5

>  <SCORE.INTER.SOLV>
10.3222

>  <SCORE.INTER.VDW>
-46.4413

>  <SCORE.INTER.norm>
-2.16403

>  <SCORE.INTRA>
0.732356

>  <SCORE.INTRA.DIHEDRAL>
1.28801

>  <SCORE.INTRA.DIHEDRAL.0>
2.1627

>  <SCORE.INTRA.POLAR>
0

>  <SCORE.INTRA.POLAR.0>
0

>  <SCORE.INTRA.REPUL>
0

>  <SCORE.INTRA.REPUL.0>
0

>  <SCORE.INTRA.SOLV>
0.0269695

>  <SCORE.INTRA.SOLV.lig_0>
-5.95779

>  <SCORE.INTRA.VDW>
0.074868

>  <SCORE.INTRA.VDW.0>
3.81702

>  <SCORE.INTRA.norm>
0.0292942

>  <SCORE.RESTR>
0

>  <SCORE.RESTR.CAVITY>
0

>  <SCORE.RESTR.norm>
0

>  <SCORE.SYSTEM>
0

>  <SCORE.SYSTEM.CONST>
0

>  <SCORE.SYSTEM.DIHEDRAL>
0

>  <SCORE.SYSTEM.SOLV>
0

>  <SCORE.SYSTEM.norm>
0

>  <SCORE.heavy>
25

>  <SCORE.norm>
-2.13474

>  <RMSD>
0.673

$$$$
1q8n_lig
 OpenBabel11021811403D
libRbt.so/2013.1/901 2013/11/27
 25 27  0  0  0  0  0  0  0  0999 V2000
    0.6094    1.0509   -1.6551 C   0  0  0  0  0  0  0  0  0  0  0  0
    0.6003    2.1490   -2.8632 C   0  0  0  0  0  0  0  0  0  0  0  0
    2.5675   -4.4374   -2.8662 N   0  0  0  0  0  0  0  0  0  0  0  0
    1.1966    3.3621   -2.7752 C   0  0  0  0  0  0  0  0  0  0  0  0
   -1.1541    2.2201    3.9516 N   0  0  0  0  0  0  0  0  0  0  0  0
    1.1600    4.3326   -3.8936 C   0  0  0  0  0  0  0  0  0  0  0  0
    0.5184    4.0114   -5.0404 C   0  0  0  0  0  0  0  0  0  0  0  0
   -0.1184    2.7205   -5.1579 C   0  0  0  0  0  0  0  0  0  0  0  0
   -0.0800    1.8549   -4.1418 C   0  0  0  0  0  0  0  0  0  0  0  0
    1.1447   -0.4547   -1.9820 C   0  0  0  0  0  0  0  0  0  0  0  0
    0.8369   -1.4957   -1.1809 C   0  0  0  0  0  0  0  0  0  0  0  0
    1.3168   -2.8768   -1.4638 C   0  0  0  0  0  0  0  0  0  0  0  0
    2.0871   -3.1231   -2.5571 C   0  0  0  0  0  0  0  0  0  0  0  0
    2.4301   -1.9951   -3.4436 C   0  0  0  0  0  0  0  0  0  0  0  0
    1.9912   -0.7578   -3.1731 C   0  0  0  0  0  0  0  0  0  0  0  0
    0.0916    1.4311   -0.1267 C   0  0  0  0  0  0  0  0  0  0  0  0
    0.2329    0.4250    0.9821 C   0  0  0  0  0  0  0  0  0  0  0  0
   -0.1551    0.6719    2.2363 C   0  0  0  0  0  0  0  0  0  0  0  0
   -0.7514    1.9623    2.6008 C   0  0  0  0  0  0  0  0  0  0  0  0
   -0.9066    2.8985    1.6417 C   0  0  0  0  0  0  0  0  0  0  0  0
   -0.4728    2.6329    0.2288 C   0  0  0  0  0  0  0  0  0  0  0  0
    3.5466   -4.6731   -3.8832 C   0  0  0  0  0  0  0  0  0  0  0  0
    2.0707   -5.5713   -2.1502 C   0  0  0  0  0  0  0  0  0  0  0  0
   -0.8244    1.2933    4.9960 C   0  0  0  0  0  0  0  0  0  0  0  0
   -1.8921    3.4131    4.2998 C   0  0  0  0  0  0  0  0  0  0  0  0
  1  2  1  0  0  0  0
  1 10  1  0  0  0  0
  1 16  1  0  0  0  0
  2  4  2  0  0  0  0
  2  9  1  0  0  0  0
  4  6  1  0  0  0  0
  6  7  2  0  0  0  0
  7  8  1  0  0  0  0
  8  9  2  0  0  0  0
 10 11  2  0  0  0  0
 10 15  1  0  0  0  0
 11 12  1  0  0  0  0
 12 13  2  0  0  0  0
 13  3  1  0  0  0  0
 13 14  1  0  0  0  0
 14 15  2  0  0  0  0
 16 17  2  0  0  0  0
 16 21  1  0  0  0  0
 17 18  1  0  0  0  0
 18 19  2  0  0  0  0
 19  5  1  0  0  0  0
 19 20  1  0  0  0  0
 20 21  2  0  0  0  0
 22  3  1  0  0  0  0
 23  3  1  0  0  0  0
 24  5  1  0  0  0  0
 25  5  1  0  0  0  0
M  END
>  <CHROM.1>
-126.18126906,-160.85864950,-174.54522542,-169.76940060,8.07851048,0.64437618
0.38869547,-1.04190951,3.02484931,-1.19796344,2.28372384

>  <Name>
1q8n_lig

>  <RI>
0

>  <Rbt.Current_Directory>
/home/itssahil/PROJECTS/Mol_Feturizer/New_Systems/rnas/1q8n

>  <Rbt.Executable>
rbdock ($Id: //depot/dev/client3/rdock/2013.1/src/exe/rbdock.cxx#4 $)

>  <Rbt.Library>
libRbt.so (2013.1, Build901 2013/11/27)

>  <Rbt.Parameter_File>
/export/apps/rDock/src/rDock_2013.1_src/data/scripts/dock_solv.prm

>  <Rbt.Receptor>
prm/blind_docking_60.prm

>  <SCORE>
-53.9122

>  <SCORE.INTER>
-54.4806

>  <SCORE.INTER.CONST>
1

>  <SCORE.INTER.POLAR>
0

>  <SCORE.INTER.ROT>
5

>  <SCORE.INTER.SOLV>
10.1352

>  <SCORE.INTER.VDW>
-46.6321

>  <SCORE.INTER.norm>
-2.17922

>  <SCORE.INTRA>
0.568383

>  <SCORE.INTRA.DIHEDRAL>
0.655

>  <SCORE.INTRA.DIHEDRAL.0>
2.1627

>  <SCORE.INTRA.POLAR>
0

>  <SCORE.INTRA.POLAR.0>
0

>  <SCORE.INTRA.REPUL>
0

>  <SCORE.INTRA.REPUL.0>
0

>  <SCORE.INTRA.SOLV>
0.0282494

>  <SCORE.INTRA.SOLV.lig_0>
-5.95779

>  <SCORE.INTRA.VDW>
0.226758

>  <SCORE.INTRA.VDW.0>
3.81702

>  <SCORE.INTRA.norm>
0.0227353

>  <SCORE.RESTR>
0

>  <SCORE.RESTR.CAVITY>
0

>  <SCORE.RESTR.norm>
0

>  <SCORE.SYSTEM>
0

>  <SCORE.SYSTEM.CONST>
0

>  <SCORE.SYSTEM.DIHEDRAL>
0

>  <SCORE.SYSTEM.SOLV>
0

>  <SCORE.SYSTEM.norm>
0

>  <SCORE.heavy>
25

>  <SCORE.norm>
-2.15649

>  <RMSD>
0.673

$$$$
1q8n_lig
 OpenBabel11021811403D
libRbt.so/2013.1/901 2013/11/27
 25 27  0  0  0  0  0  0  0  0999 V2000
    0.6319    0.8571   -1.6825 C   0  0  0  0  0  0  0  0  0  0  0  0
    0.5570    1.9716   -2.8731 C   0  0  0  0  0  0  0  0  0  0  0  0
    2.6199   -4.5830   -3.0518 N   0  0  0  0  0  0  0  0  0  0  0  0
   -0.0656    1.7597   -4.0573 C   0  0  0  0  0  0  0  0  0  0  0  0
   -1.1602    2.3172    3.8465 N   0  0  0  0  0  0  0  0  0  0  0  0
   -0.1056    2.7965   -5.1144 C   0  0  0  0  0  0  0  0  0  0  0  0
    0.4905    3.9926   -4.9046 C   0  0  0  0  0  0  0  0  0  0  0  0
    1.1542    4.2419   -3.6463 C   0  0  0  0  0  0  0  0  0  0  0  0
    1.1850    3.2984   -2.7018 C   0  0  0  0  0  0  0  0  0  0  0  0
    1.1759   -0.6353   -2.0526 C   0  0  0  0  0  0  0  0  0  0  0  0
    0.9602   -1.6824   -1.2295 C   0  0  0  0  0  0  0  0  0  0  0  0
    1.4495   -3.0517   -1.5513 C   0  0  0  0  0  0  0  0  0  0  0  0
    2.1340   -3.2805   -2.7039 C   0  0  0  0  0  0  0  0  0  0  0  0
    2.3756   -2.1457   -3.6149 C   0  0  0  0  0  0  0  0  0  0  0  0
    1.9297   -0.9193   -3.3089 C   0  0  0  0  0  0  0  0  0  0  0  0
    0.1712    1.2079   -0.1289 C   0  0  0  0  0  0  0  0  0  0  0  0
   -0.5323    2.5036    0.1675 C   0  0  0  0  0  0  0  0  0  0  0  0
   -0.9378    2.8420    1.3944 C   0  0  0  0  0  0  0  0  0  0  0  0
   -0.7112    1.9487    2.5365 C   0  0  0  0  0  0  0  0  0  0  0  0
   -0.0785    0.7757    2.3262 C   0  0  0  0  0  0  0  0  0  0  0  0
    0.3805    0.3839    0.9512 C   0  0  0  0  0  0  0  0  0  0  0  0
    3.6420   -4.7796   -4.0343 C   0  0  0  0  0  0  0  0  0  0  0  0
    2.0852   -5.7445   -2.4115 C   0  0  0  0  0  0  0  0  0  0  0  0
   -1.9028    3.5287    4.0444 C   0  0  0  0  0  0  0  0  0  0  0  0
   -0.8859    1.4842    4.9955 C   0  0  0  0  0  0  0  0  0  0  0  0
  1  2  1  0  0  0  0
  1 10  1  0  0  0  0
  1 16  1  0  0  0  0
  2  4  2  0  0  0  0
  2  9  1  0  0  0  0
  4  6  1  0  0  0  0
  6  7  2  0  0  0  0
  7  8  1  0  0  0  0
  8  9  2  0  0  0  0
 10 11  2  0  0  0  0
 10 15  1  0  0  0  0
 11 12  1  0  0  0  0
 12 13  2  0  0  0  0
 13  3  1  0  0  0  0
 13 14  1  0  0  0  0
 14 15  2  0  0  0  0
 16 17  2  0  0  0  0
 16 21  1  0  0  0  0
 17 18  1  0  0  0  0
 18 19  2  0  0  0  0
 19  5  1  0  0  0  0
 19 20  1  0  0  0  0
 20 21  2  0  0  0  0
 22  3  1  0  0  0  0
 23  3  1  0  0  0  0
 24  5  1  0  0  0  0
 25  5  1  0  0  0  0
M  END
>  <CHROM.1>
52.19368091,-163.40813197,9.70187121,-161.86486149,3.52560521,0.66460171
0.31391611,-1.10064841,0.07640326,1.20156156,-0.86495396

>  <Name>
1q8n_lig

>  <RI>
0

>  <Rbt.Current_Directory>
/home/itssahil/PROJECTS/Mol_Feturizer/New_Systems/rnas/1q8n

>  <Rbt.Executable>
rbdock ($Id: //depot/dev/client3/rdock/2013.1/src/exe/rbdock.cxx#4 $)

>  <Rbt.Library>
libRbt.so (2013.1, Build901 2013/11/27)

>  <Rbt.Parameter_File>
/export/apps/rDock/src/rDock_2013.1_src/data/scripts/dock_solv.prm

>  <Rbt.Receptor>
prm/pocket_docking_3.prm

>  <SCORE>
-53.263

>  <SCORE.INTER>
-53.7242

>  <SCORE.INTER.CONST>
1

>  <SCORE.INTER.POLAR>
0

>  <SCORE.INTER.ROT>
5

>  <SCORE.INTER.SOLV>
10.2762

>  <SCORE.INTER.VDW>
-46.1749

>  <SCORE.INTER.norm>
-2.14897

>  <SCORE.INTRA>
0.461193

>  <SCORE.INTRA.DIHEDRAL>
1.2862

>  <SCORE.INTRA.DIHEDRAL.0>
2.1627

>  <SCORE.INTRA.POLAR>
0

>  <SCORE.INTRA.POLAR.0>
0

>  <SCORE.INTRA.REPUL>
0

>  <SCORE.INTRA.REPUL.0>
0

>  <SCORE.INTRA.SOLV>
0.0255322

>  <SCORE.INTRA.SOLV.lig_0>
-5.95779

>  <SCORE.INTRA.VDW>
-0.194672

>  <SCORE.INTRA.VDW.0>
3.81702

>  <SCORE.INTRA.norm>
0.0184477

>  <SCORE.RESTR>
0

>  <SCORE.RESTR.CAVITY>
0

>  <SCORE.RESTR.norm>
0

>  <SCORE.SYSTEM>
0

>  <SCORE.SYSTEM.CONST>
0

>  <SCORE.SYSTEM.DIHEDRAL>
0

>  <SCORE.SYSTEM.SOLV>
0

>  <SCORE.SYSTEM.norm>
0

>  <SCORE.heavy>
25

>  <SCORE.norm>
-2.13052

>  <RMSD>
0.675

$$$$
1q8n_lig
 OpenBabel11021811403D
libRbt.so/2013.1/901 2013/11/27
 25 27  0  0  0  0  0  0  0  0999 V2000
    0.6759    0.8910   -1.6678 C   0  0  0  0  0  0  0  0  0  0  0  0
    0.6183    2.0134   -2.8521 C   0  0  0  0  0  0  0  0  0  0  0  0
    2.6242   -4.5581   -3.0582 N   0  0  0  0  0  0  0  0  0  0  0  0
    1.2245    3.2217   -2.7668 C   0  0  0  0  0  0  0  0  0  0  0  0
   -1.1358    2.3345    3.8591 N   0  0  0  0  0  0  0  0  0  0  0  0
    1.1428    4.2147   -3.8628 C   0  0  0  0  0  0  0  0  0  0  0  0
    0.4486    3.9197   -4.9857 C   0  0  0  0  0  0  0  0  0  0  0  0
   -0.1998    2.6342   -5.1001 C   0  0  0  0  0  0  0  0  0  0  0  0
   -0.1203    1.7481   -4.1043 C   0  0  0  0  0  0  0  0  0  0  0  0
    1.2090   -0.6039   -2.0437 C   0  0  0  0  0  0  0  0  0  0  0  0
    0.9823   -1.6533   -1.2266 C   0  0  0  0  0  0  0  0  0  0  0  0
    1.4615   -3.0248   -1.5537 C   0  0  0  0  0  0  0  0  0  0  0  0
    2.1477   -3.2535   -2.7052 C   0  0  0  0  0  0  0  0  0  0  0  0
    2.4013   -2.1162   -3.6098 C   0  0  0  0  0  0  0  0  0  0  0  0
    1.9645   -0.8877   -3.2991 C   0  0  0  0  0  0  0  0  0  0  0  0
    0.2088    1.2365   -0.1150 C   0  0  0  0  0  0  0  0  0  0  0  0
   -0.4765    2.5407    0.1866 C   0  0  0  0  0  0  0  0  0  0  0  0
   -0.8862    2.8756    1.4132 C   0  0  0  0  0  0  0  0  0  0  0  0
   -0.6826    1.9696    2.5496 C   0  0  0  0  0  0  0  0  0  0  0  0
   -0.0668    0.7885    2.3345 C   0  0  0  0  0  0  0  0  0  0  0  0
    0.3967    0.4006    0.9598 C   0  0  0  0  0  0  0  0  0  0  0  0
    3.6452   -4.7583   -4.0411 C   0  0  0  0  0  0  0  0  0  0  0  0
    2.0807   -5.7182   -2.4227 C   0  0  0  0  0  0  0  0  0  0  0  0
   -0.8291    1.5063    4.9897 C   0  0  0  0  0  0  0  0  0  0  0  0
   -1.9031    3.5398    4.0786 C   0  0  0  0  0  0  0  0  0  0  0  0
  1  2  1  0  0  0  0
  1 10  1  0  0  0  0
  1 16  1  0  0  0  0
  2  4  2  0  0  0  0
  2  9  1  0  0  0  0
  4  6  1  0  0  0  0
  6  7  2  0  0  0  0
  7  8  1  0  0  0  0
  8  9  2  0  0  0  0
 10 11  2  0  0  0  0
 10 15  1  0  0  0  0
 11 12  1  0  0  0  0
 12 13  2  0  0  0  0
 13  3  1  0  0  0  0
 13 14  1  0  0  0  0
 14 15  2  0  0  0  0
 16 17  2  0  0  0  0
 16 21  1  0  0  0  0
 17 18  1  0  0  0  0
 18 19  2  0  0  0  0
 19  5  1  0  0  0  0
 19 20  1  0  0  0  0
 20 21  2  0  0  0  0
 22  3  1  0  0  0  0
 23  3  1  0  0  0  0
 24  5  1  0  0  0  0
 25  5  1  0  0  0  0
M  END
>  <CHROM.1>
-125.28401157,-163.60095365,9.27850851,-162.03496100,-174.27516599,0.67906202
0.32090289,-1.11012803,0.11920025,1.20264267,-0.89488592

>  <Name>
1q8n_lig

>  <RI>
0

>  <Rbt.Current_Directory>
/home/itssahil/PROJECTS/Mol_Feturizer/New_Systems/rnas/1q8n

>  <Rbt.Executable>
rbdock ($Id: //depot/dev/client3/rdock/2013.1/src/exe/rbdock.cxx#4 $)

>  <Rbt.Library>
libRbt.so (2013.1, Build901 2013/11/27)

>  <Rbt.Parameter_File>
/export/apps/rDock/src/rDock_2013.1_src/data/scripts/dock_solv.prm

>  <Rbt.Receptor>
prm/pocket_docking_4.prm

>  <SCORE>
-53.6632

>  <SCORE.INTER>
-54.1938

>  <SCORE.INTER.CONST>
1

>  <SCORE.INTER.POLAR>
0

>  <SCORE.INTER.ROT>
5

>  <SCORE.INTER.SOLV>
10.2217

>  <SCORE.INTER.VDW>
-46.4697

>  <SCORE.INTER.norm>
-2.16775

>  <SCORE.INTRA>
0.530567

>  <SCORE.INTRA.DIHEDRAL>
1.34268

>  <SCORE.INTRA.DIHEDRAL.0>
2.1627

>  <SCORE.INTRA.POLAR>
0

>  <SCORE.INTRA.POLAR.0>
0

>  <SCORE.INTRA.REPUL>
0

>  <SCORE.INTRA.REPUL.0>
0

>  <SCORE.INTRA.SOLV>
0.0224507

>  <SCORE.INTRA.SOLV.lig_0>
-5.95779

>  <SCORE.INTRA.VDW>
-0.151999

>  <SCORE.INTRA.VDW.0>
3.81702

>  <SCORE.INTRA.norm>
0.0212227

>  <SCORE.RESTR>
0

>  <SCORE.RESTR.CAVITY>
0

>  <SCORE.RESTR.norm>
0

>  <SCORE.SYSTEM>
0

>  <SCORE.SYSTEM.CONST>
0

>  <SCORE.SYSTEM.DIHEDRAL>
0

>  <SCORE.SYSTEM.SOLV>
0

>  <SCORE.SYSTEM.norm>
0

>  <SCORE.heavy>
25

>  <SCORE.norm>
-2.14653

>  <RMSD>
0.677

$$$$
1q8n_lig
 OpenBabel11021811403D
libRbt.so/2013.1/901 2013/11/27
 25 27  0  0  0  0  0  0  0  0999 V2000
    0.5658    0.8778   -1.6272 C   0  0  0  0  0  0  0  0  0  0  0  0
    0.5240    2.0184   -2.7945 C   0  0  0  0  0  0  0  0  0  0  0  0
   -1.1909    2.3643    3.8615 N   0  0  0  0  0  0  0  0  0  0  0  0
   -0.0802    1.8390   -3.9936 C   0  0  0  0  0  0  0  0  0  0  0  0
    2.5488   -4.6227   -2.9408 N   0  0  0  0  0  0  0  0  0  0  0  0
   -0.0904    2.8985   -5.0285 C   0  0  0  0  0  0  0  0  0  0  0  0
    0.5150    4.0831   -4.7826 C   0  0  0  0  0  0  0  0  0  0  0  0
    1.1593    4.2978   -3.5080 C   0  0  0  0  0  0  0  0  0  0  0  0
    1.1633    3.3340   -2.5838 C   0  0  0  0  0  0  0  0  0  0  0  0
    0.0836    1.2902   -0.1247 C   0  0  0  0  0  0  0  0  0  0  0  0
   -0.5767    2.4440    0.1059 C   0  0  0  0  0  0  0  0  0  0  0  0
   -1.0244    2.8367    1.4709 C   0  0  0  0  0  0  0  0  0  0  0  0
   -0.7754    2.0246    2.5328 C   0  0  0  0  0  0  0  0  0  0  0  0
   -0.0563    0.7585    2.2959 C   0  0  0  0  0  0  0  0  0  0  0  0
    0.3412    0.4213    1.0610 C   0  0  0  0  0  0  0  0  0  0  0  0
    1.0825   -0.6672   -1.9352 C   0  0  0  0  0  0  0  0  0  0  0  0
    1.7485   -0.9853   -3.2454 C   0  0  0  0  0  0  0  0  0  0  0  0
    2.1959   -2.2061   -3.5517 C   0  0  0  0  0  0  0  0  0  0  0  0
    2.0555   -3.3196   -2.6061 C   0  0  0  0  0  0  0  0  0  0  0  0
    1.4593   -3.0894   -1.4178 C   0  0  0  0  0  0  0  0  0  0  0  0
    0.9539   -1.7209   -1.0619 C   0  0  0  0  0  0  0  0  0  0  0  0
   -0.8736    1.5476    4.9933 C   0  0  0  0  0  0  0  0  0  0  0  0
   -1.9487    3.5543    4.0957 C   0  0  0  0  0  0  0  0  0  0  0  0
    3.5819   -4.7764   -3.9244 C   0  0  0  0  0  0  0  0  0  0  0  0
    2.0293   -5.8092   -2.2992 C   0  0  0  0  0  0  0  0  0  0  0  0
  1  2  1  0  0  0  0
  1 10  1  0  0  0  0
  1 16  1  0  0  0  0
  2  4  2  0  0  0  0
  2  9  1  0  0  0  0
  4  6  1  0  0  0  0
  6  7  2  0  0  0  0
  7  8  1  0  0  0  0
  8  9  2  0  0  0  0
 10 11  2  0  0  0  0
 10 15  1  0  0  0  0
 11 12  1  0  0  0  0
 12 13  2  0  0  0  0
 13  3  1  0  0  0  0
 13 14  1  0  0  0  0
 14 15  2  0  0  0  0
 16 17  2  0  0  0  0
 16 21  1  0  0  0  0
 17 18  1  0  0  0  0
 18 19  2  0  0  0  0
 19  5  1  0  0  0  0
 19 20  1  0  0  0  0
 20 21  2  0  0  0  0
 22  3  1  0  0  0  0
 23  3  1  0  0  0  0
 24  5  1  0  0  0  0
 25  5  1  0  0  0  0
M  END
>  <CHROM.1>
-128.32380058,12.91346587,10.58613989,-176.77930351,22.90329747,0.61834801
0.32572453,-1.02873252,3.11484245,-1.20649514,2.29648972

>  <Name>
1q8n_lig

>  <RI>
0

>  <Rbt.Current_Directory>
/home/itssahil/PROJECTS/Mol_Feturizer/New_Systems/rnas/1q8n

>  <Rbt.Executable>
rbdock ($Id: //depot/dev/client3/rdock/2013.1/src/exe/rbdock.cxx#4 $)

>  <Rbt.Library>
libRbt.so (2013.1, Build901 2013/11/27)

>  <Rbt.Parameter_File>
/export/apps/rDock/src/rDock_2013.1_src/data/scripts/dock_solv.prm

>  <Rbt.Receptor>
prm/blind_docking_60.prm

>  <SCORE>
-52.0112

>  <SCORE.INTER>
-52.5619

>  <SCORE.INTER.CONST>
1

>  <SCORE.INTER.POLAR>
0

>  <SCORE.INTER.ROT>
5

>  <SCORE.INTER.SOLV>
10.4305

>  <SCORE.INTER.VDW>
-45.4514

>  <SCORE.INTER.norm>
-2.10248

>  <SCORE.INTRA>
0.550669

>  <SCORE.INTRA.DIHEDRAL>
1.9738

>  <SCORE.INTRA.DIHEDRAL.0>
2.1627

>  <SCORE.INTRA.POLAR>
0

>  <SCORE.INTRA.POLAR.0>
0

>  <SCORE.INTRA.REPUL>
0

>  <SCORE.INTRA.REPUL.0>
0

>  <SCORE.INTRA.SOLV>
0.0289225

>  <SCORE.INTRA.SOLV.lig_0>
-5.95779

>  <SCORE.INTRA.VDW>
-0.450693

>  <SCORE.INTRA.VDW.0>
3.81702

>  <SCORE.INTRA.norm>
0.0220267

>  <SCORE.RESTR>
0

>  <SCORE.RESTR.CAVITY>
0

>  <SCORE.RESTR.norm>
0

>  <SCORE.SYSTEM>
0

>  <SCORE.SYSTEM.CONST>
0

>  <SCORE.SYSTEM.DIHEDRAL>
0

>  <SCORE.SYSTEM.SOLV>
0

>  <SCORE.SYSTEM.norm>
0

>  <SCORE.heavy>
25

>  <SCORE.norm>
-2.08045

>  <RMSD>
0.678

$$$$
1q8n_lig
 OpenBabel11021811403D
libRbt.so/2013.1/901 2013/11/27
 25 27  0  0  0  0  0  0  0  0999 V2000
    0.5679    0.9427   -1.7709 C   0  0  0  0  0  0  0  0  0  0  0  0
    0.5204    2.0405   -2.9784 C   0  0  0  0  0  0  0  0  0  0  0  0
    2.6080   -4.5086   -3.0132 N   0  0  0  0  0  0  0  0  0  0  0  0
   -0.1616    1.8521   -4.1335 C   0  0  0  0  0  0  0  0  0  0  0  0
   -1.0884    2.1136    3.8681 N   0  0  0  0  0  0  0  0  0  0  0  0
   -0.1743    2.8721   -5.2074 C   0  0  0  0  0  0  0  0  0  0  0  0
    0.5082    4.0285   -5.0431 C   0  0  0  0  0  0  0  0  0  0  0  0
    1.2366    4.2526   -3.8162 C   0  0  0  0  0  0  0  0  0  0  0  0
    1.2418    3.3245   -2.8562 C   0  0  0  0  0  0  0  0  0  0  0  0
    1.1260   -0.5528   -2.1063 C   0  0  0  0  0  0  0  0  0  0  0  0
    0.8840   -1.5912   -1.2796 C   0  0  0  0  0  0  0  0  0  0  0  0
    1.3856   -2.9631   -1.5698 C   0  0  0  0  0  0  0  0  0  0  0  0
    2.1089   -3.2033   -2.6961 C   0  0  0  0  0  0  0  0  0  0  0  0
    2.3796   -2.0780   -3.6107 C   0  0  0  0  0  0  0  0  0  0  0  0
    1.9222   -0.8490   -3.3333 C   0  0  0  0  0  0  0  0  0  0  0  0
    0.0662    1.3131   -0.2348 C   0  0  0  0  0  0  0  0  0  0  0  0
    0.5002    0.4542    0.9208 C   0  0  0  0  0  0  0  0  0  0  0  0
    0.1394    0.7033    2.1826 C   0  0  0  0  0  0  0  0  0  0  0  0
   -0.7164    1.8497    2.5097 C   0  0  0  0  0  0  0  0  0  0  0  0
   -1.1391    2.6493    1.5084 C   0  0  0  0  0  0  0  0  0  0  0  0
   -0.7387    2.3801    0.0864 C   0  0  0  0  0  0  0  0  0  0  0  0
    2.1156   -5.6908   -2.3739 C   0  0  0  0  0  0  0  0  0  0  0  0
    3.6321   -4.6668   -3.9988 C   0  0  0  0  0  0  0  0  0  0  0  0
   -1.8471    3.2858    4.1976 C   0  0  0  0  0  0  0  0  0  0  0  0
   -0.7189    1.2119    4.9358 C   0  0  0  0  0  0  0  0  0  0  0  0
  1  2  1  0  0  0  0
  1 10  1  0  0  0  0
  1 16  1  0  0  0  0
  2  4  2  0  0  0  0
  2  9  1  0  0  0  0
  4  6  1  0  0  0  0
  6  7  2  0  0  0  0
  7  8  1  0  0  0  0
  8  9  2  0  0  0  0
 10 11  2  0  0  0  0
 10 15  1  0  0  0  0
 11 12  1  0  0  0  0
 12 13  2  0  0  0  0
 13  3  1  0  0  0  0
 13 14  1  0  0  0  0
 14 15  2  0  0  0  0
 16 17  2  0  0  0  0
 16 21  1  0  0  0  0
 17 18  1  0  0  0  0
 18 19  2  0  0  0  0
 19  5  1  0  0  0  0
 19 20  1  0  0  0  0
 20 21  2  0  0  0  0
 22  3  1  0  0  0  0
 23  3  1  0  0  0  0
 24  5  1  0  0  0  0
 25  5  1  0  0  0  0
M  END
>  <CHROM.1>
57.69260673,-162.91225389,-161.37721852,16.03019408,175.65100547,0.65891049
0.31394193,-1.13827149,0.13984285,1.19638193,-0.88902778

>  <Name>
1q8n_lig

>  <RI>
0

>  <Rbt.Current_Directory>
/home/itssahil/PROJECTS/Mol_Feturizer/New_Systems/rnas/1q8n

>  <Rbt.Executable>
rbdock ($Id: //depot/dev/client3/rdock/2013.1/src/exe/rbdock.cxx#4 $)

>  <Rbt.Library>
libRbt.so (2013.1, Build901 2013/11/27)

>  <Rbt.Parameter_File>
/export/apps/rDock/src/rDock_2013.1_src/data/scripts/dock_solv.prm

>  <Rbt.Receptor>
prm/pocket_docking_2.prm

>  <SCORE>
-52.6185

>  <SCORE.INTER>
-53.5582

>  <SCORE.INTER.CONST>
1

>  <SCORE.INTER.POLAR>
0

>  <SCORE.INTER.ROT>
5

>  <SCORE.INTER.SOLV>
10.2146

>  <SCORE.INTER.VDW>
-46.0437

>  <SCORE.INTER.norm>
-2.14233

>  <SCORE.INTRA>
0.493022

>  <SCORE.INTRA.DIHEDRAL>
1.04987

>  <SCORE.INTRA.DIHEDRAL.0>
2.1627

>  <SCORE.INTRA.POLAR>
0

>  <SCORE.INTRA.POLAR.0>
0

>  <SCORE.INTRA.REPUL>
0

>  <SCORE.INTRA.REPUL.0>
0

>  <SCORE.INTRA.SOLV>
0.0181171

>  <SCORE.INTRA.SOLV.lig_0>
-5.95779

>  <SCORE.INTRA.VDW>
-0.0409739

>  <SCORE.INTRA.VDW.0>
3.81702

>  <SCORE.INTRA.norm>
0.0197209

>  <SCORE.RESTR>
0.446671

>  <SCORE.RESTR.CAVITY>
0.446671

>  <SCORE.RESTR.norm>
0.0178668

>  <SCORE.SYSTEM>
0

>  <SCORE.SYSTEM.CONST>
0

>  <SCORE.SYSTEM.DIHEDRAL>
0

>  <SCORE.SYSTEM.SOLV>
0

>  <SCORE.SYSTEM.norm>
0

>  <SCORE.heavy>
25

>  <SCORE.norm>
-2.10474

>  <RMSD>
0.678

$$$$
1q8n_lig
 OpenBabel11021811413D
libRbt.so/2013.1/901 2013/11/27
 25 27  0  0  0  0  0  0  0  0999 V2000
    0.6064    0.8617   -1.6387 C   0  0  0  0  0  0  0  0  0  0  0  0
    0.5426    1.9743   -2.8318 C   0  0  0  0  0  0  0  0  0  0  0  0
    2.5573   -4.6052   -2.9537 N   0  0  0  0  0  0  0  0  0  0  0  0
   -0.0865    1.7679   -4.0136 C   0  0  0  0  0  0  0  0  0  0  0  0
   -1.1934    2.3441    3.8818 N   0  0  0  0  0  0  0  0  0  0  0  0
   -0.1160    2.8026   -5.0730 C   0  0  0  0  0  0  0  0  0  0  0  0
    0.4964    3.9912   -4.8679 C   0  0  0  0  0  0  0  0  0  0  0  0
    1.1673    4.2346   -3.6123 C   0  0  0  0  0  0  0  0  0  0  0  0
    1.1885    3.2931   -2.6656 C   0  0  0  0  0  0  0  0  0  0  0  0
    1.1414   -0.6351   -2.0043 C   0  0  0  0  0  0  0  0  0  0  0  0
    1.7308   -0.8971   -3.1894 C   0  0  0  0  0  0  0  0  0  0  0  0
    2.2252   -2.2574   -3.5401 C   0  0  0  0  0  0  0  0  0  0  0  0
    2.0933   -3.2824   -2.6561 C   0  0  0  0  0  0  0  0  0  0  0  0
    1.4528   -3.0106   -1.3554 C   0  0  0  0  0  0  0  0  0  0  0  0
    1.0118   -1.7806   -1.0566 C   0  0  0  0  0  0  0  0  0  0  0  0
    0.1435    1.2187   -0.0873 C   0  0  0  0  0  0  0  0  0  0  0  0
   -0.5599    2.5158    0.2031 C   0  0  0  0  0  0  0  0  0  0  0  0
   -0.9671    2.8592    1.4280 C   0  0  0  0  0  0  0  0  0  0  0  0
   -0.7427    1.9702    2.5739 C   0  0  0  0  0  0  0  0  0  0  0  0
   -0.1101    0.7962    2.3691 C   0  0  0  0  0  0  0  0  0  0  0  0
    0.3508    0.3988    0.9963 C   0  0  0  0  0  0  0  0  0  0  0  0
    3.5526   -4.8594   -3.9503 C   0  0  0  0  0  0  0  0  0  0  0  0
    2.0268   -5.7292   -2.2462 C   0  0  0  0  0  0  0  0  0  0  0  0
   -1.9235    3.5637    4.0761 C   0  0  0  0  0  0  0  0  0  0  0  0
   -0.9336    1.5083    5.0322 C   0  0  0  0  0  0  0  0  0  0  0  0
  1  2  1  0  0  0  0
  1 10  1  0  0  0  0
  1 16  1  0  0  0  0
  2  4  2  0  0  0  0
  2  9  1  0  0  0  0
  4  6  1  0  0  0  0
  6  7  2  0  0  0  0
  7  8  1  0  0  0  0
  8  9  2  0  0  0  0
 10 11  2  0  0  0  0
 10 15  1  0  0  0  0
 11 12  1  0  0  0  0
 12 13  2  0  0  0  0
 13  3  1  0  0  0  0
 13 14  1  0  0  0  0
 14 15  2  0  0  0  0
 16 17  2  0  0  0  0
 16 21  1  0  0  0  0
 17 18  1  0  0  0  0
 18 19  2  0  0  0  0
 19  5  1  0  0  0  0
 19 20  1  0  0  0  0
 20 21  2  0  0  0  0
 22  3  1  0  0  0  0
 23  3  1  0  0  0  0
 24  5  1  0  0  0  0
 25  5  1  0  0  0  0
M  END
>  <CHROM.1>
52.70220188,11.22780933,10.08675687,21.24755847,2.86001608,0.62768527,0.31205315
-1.03501278,0.05808895,1.20559007,-0.85855883

>  <Name>
1q8n_lig

>  <RI>
0

>  <Rbt.Current_Directory>
/home/itssahil/PROJECTS/Mol_Feturizer/New_Systems/rnas/1q8n

>  <Rbt.Executable>
rbdock ($Id: //depot/dev/client3/rdock/2013.1/src/exe/rbdock.cxx#4 $)

>  <Rbt.Library>
libRbt.so (2013.1, Build901 2013/11/27)

>  <Rbt.Parameter_File>
/export/apps/rDock/src/rDock_2013.1_src/data/scripts/dock_solv.prm

>  <Rbt.Receptor>
prm/pocket_docking_6.prm

>  <SCORE>
-53.4057

>  <SCORE.INTER>
-53.942

>  <SCORE.INTER.CONST>
1

>  <SCORE.INTER.POLAR>
0

>  <SCORE.INTER.ROT>
5

>  <SCORE.INTER.SOLV>
10.27

>  <SCORE.INTER.VDW>
-46.318

>  <SCORE.INTER.norm>
-2.15768

>  <SCORE.INTRA>
0.536304

>  <SCORE.INTRA.DIHEDRAL>
1.70948

>  <SCORE.INTRA.DIHEDRAL.0>
2.1627

>  <SCORE.INTRA.POLAR>
0

>  <SCORE.INTRA.POLAR.0>
0

>  <SCORE.INTRA.REPUL>
0

>  <SCORE.INTRA.REPUL.0>
0

>  <SCORE.INTRA.SOLV>
0.0282781

>  <SCORE.INTRA.SOLV.lig_0>
-5.95779

>  <SCORE.INTRA.VDW>
-0.332576

>  <SCORE.INTRA.VDW.0>
3.81702

>  <SCORE.INTRA.norm>
0.0214522

>  <SCORE.RESTR>
0

>  <SCORE.RESTR.CAVITY>
0

>  <SCORE.RESTR.norm>
0

>  <SCORE.SYSTEM>
0

>  <SCORE.SYSTEM.CONST>
0

>  <SCORE.SYSTEM.DIHEDRAL>
0

>  <SCORE.SYSTEM.SOLV>
0

>  <SCORE.SYSTEM.norm>
0

>  <SCORE.heavy>
25

>  <SCORE.norm>
-2.13623

>  <RMSD>
0.678

$$$$
1q8n_lig
 OpenBabel11021811403D
libRbt.so/2013.1/901 2013/11/27
 25 27  0  0  0  0  0  0  0  0999 V2000
    0.4945    0.9144   -1.6953 C   0  0  0  0  0  0  0  0  0  0  0  0
    0.4575    1.9899   -2.9230 C   0  0  0  0  0  0  0  0  0  0  0  0
    2.4662   -4.5914   -2.8001 N   0  0  0  0  0  0  0  0  0  0  0  0
   -0.2031    1.7745   -4.0858 C   0  0  0  0  0  0  0  0  0  0  0  0
   -1.1505    2.1999    3.9220 N   0  0  0  0  0  0  0  0  0  0  0  0
   -0.2067    2.7750   -5.1780 C   0  0  0  0  0  0  0  0  0  0  0  0
    0.4624    3.9405   -5.0232 C   0  0  0  0  0  0  0  0  0  0  0  0
    1.1678    4.1932   -3.7886 C   0  0  0  0  0  0  0  0  0  0  0  0
    1.1652    3.2825   -2.8120 C   0  0  0  0  0  0  0  0  0  0  0  0
    1.0353   -0.5932   -2.0033 C   0  0  0  0  0  0  0  0  0  0  0  0
    1.6490   -0.8919   -3.1672 C   0  0  0  0  0  0  0  0  0  0  0  0
    2.1490   -2.2627   -3.4654 C   0  0  0  0  0  0  0  0  0  0  0  0
    1.9976   -3.2598   -2.5533 C   0  0  0  0  0  0  0  0  0  0  0  0
    1.3305   -2.9478   -1.2751 C   0  0  0  0  0  0  0  0  0  0  0  0
    0.8847   -1.7090   -1.0237 C   0  0  0  0  0  0  0  0  0  0  0  0
   -0.0009    1.3191   -0.1658 C   0  0  0  0  0  0  0  0  0  0  0  0
    0.3657    0.4377    0.9963 C   0  0  0  0  0  0  0  0  0  0  0  0
    0.0066    0.7119    2.2534 C   0  0  0  0  0  0  0  0  0  0  0  0
   -0.7801    1.9100    2.5684 C   0  0  0  0  0  0  0  0  0  0  0  0
   -1.1408    2.7318    1.5610 C   0  0  0  0  0  0  0  0  0  0  0  0
   -0.7416    2.4347    0.1442 C   0  0  0  0  0  0  0  0  0  0  0  0
    1.9772   -5.7209   -2.0697 C   0  0  0  0  0  0  0  0  0  0  0  0
    3.4550   -4.8308   -3.8052 C   0  0  0  0  0  0  0  0  0  0  0  0
   -0.7767    1.3092    4.9828 C   0  0  0  0  0  0  0  0  0  0  0  0
   -1.8996    3.3901    4.2564 C   0  0  0  0  0  0  0  0  0  0  0  0
  1  2  1  0  0  0  0
  1 10  1  0  0  0  0
  1 16  1  0  0  0  0
  2  4  2  0  0  0  0
  2  9  1  0  0  0  0
  4  6  1  0  0  0  0
  6  7  2  0  0  0  0
  7  8  1  0  0  0  0
  8  9  2  0  0  0  0
 10 11  2  0  0  0  0
 10 15  1  0  0  0  0
 11 12  1  0  0  0  0
 12 13  2  0  0  0  0
 13  3  1  0  0  0  0
 13 14  1  0  0  0  0
 14 15  2  0  0  0  0
 16 17  2  0  0  0  0
 16 21  1  0  0  0  0
 17 18  1  0  0  0  0
 18 19  2  0  0  0  0
 19  5  1  0  0  0  0
 19 20  1  0  0  0  0
 20 21  2  0  0  0  0
 22  3  1  0  0  0  0
 23  3  1  0  0  0  0
 24  5  1  0  0  0  0
 25  5  1  0  0  0  0
M  END
>  <CHROM.1>
56.12707112,11.19979087,-164.53128513,-160.55427021,-1.10708303,0.57048600
0.28811083,-1.03021933,0.11809352,1.20716605,-0.89533162

>  <Name>
1q8n_lig

>  <RI>
0

>  <Rbt.Current_Directory>
/home/itssahil/PROJECTS/Mol_Feturizer/New_Systems/rnas/1q8n

>  <Rbt.Executable>
rbdock ($Id: //depot/dev/client3/rdock/2013.1/src/exe/rbdock.cxx#4 $)

>  <Rbt.Library>
libRbt.so (2013.1, Build901 2013/11/27)

>  <Rbt.Parameter_File>
/export/apps/rDock/src/rDock_2013.1_src/data/scripts/dock_solv.prm

>  <Rbt.Receptor>
prm/pocket_docking_4.prm

>  <SCORE>
-53.5274

>  <SCORE.INTER>
-54.1455

>  <SCORE.INTER.CONST>
1

>  <SCORE.INTER.POLAR>
0

>  <SCORE.INTER.ROT>
5

>  <SCORE.INTER.SOLV>
10.2142

>  <SCORE.INTER.VDW>
-46.4351

>  <SCORE.INTER.norm>
-2.16582

>  <SCORE.INTRA>
0.618029

>  <SCORE.INTRA.DIHEDRAL>
1.42207

>  <SCORE.INTRA.DIHEDRAL.0>
2.1627

>  <SCORE.INTRA.POLAR>
0

>  <SCORE.INTRA.POLAR.0>
0

>  <SCORE.INTRA.REPUL>
0

>  <SCORE.INTRA.REPUL.0>
0

>  <SCORE.INTRA.SOLV>
0.0264449

>  <SCORE.INTRA.SOLV.lig_0>
-5.95779

>  <SCORE.INTRA.VDW>
-0.106228

>  <SCORE.INTRA.VDW.0>
3.81702

>  <SCORE.INTRA.norm>
0.0247212

>  <SCORE.RESTR>
0

>  <SCORE.RESTR.CAVITY>
0

>  <SCORE.RESTR.norm>
0

>  <SCORE.SYSTEM>
0

>  <SCORE.SYSTEM.CONST>
0

>  <SCORE.SYSTEM.DIHEDRAL>
0

>  <SCORE.SYSTEM.SOLV>
0

>  <SCORE.SYSTEM.norm>
0

>  <SCORE.heavy>
25

>  <SCORE.norm>
-2.1411

>  <RMSD>
0.680

$$$$
1q8n_lig
 OpenBabel11021811403D
libRbt.so/2013.1/901 2013/11/27
 25 27  0  0  0  0  0  0  0  0999 V2000
    0.4910    0.9341   -1.6324 C   0  0  0  0  0  0  0  0  0  0  0  0
    0.4551    2.0037   -2.8653 C   0  0  0  0  0  0  0  0  0  0  0  0
    2.4801   -4.5640   -2.7440 N   0  0  0  0  0  0  0  0  0  0  0  0
   -0.2224    1.7919   -4.0191 C   0  0  0  0  0  0  0  0  0  0  0  0
   -1.1684    2.2455    3.9747 N   0  0  0  0  0  0  0  0  0  0  0  0
   -0.2245    2.7867   -5.1165 C   0  0  0  0  0  0  0  0  0  0  0  0
    0.4633    3.9430   -4.9759 C   0  0  0  0  0  0  0  0  0  0  0  0
    1.1871    4.1919   -3.7510 C   0  0  0  0  0  0  0  0  0  0  0  0
    1.1828    3.2864   -2.7696 C   0  0  0  0  0  0  0  0  0  0  0  0
    1.0357   -0.5739   -1.9318 C   0  0  0  0  0  0  0  0  0  0  0  0
    0.8876   -1.5635   -1.0267 C   0  0  0  0  0  0  0  0  0  0  0  0
    1.3785   -2.9459   -1.2831 C   0  0  0  0  0  0  0  0  0  0  0  0
    1.9952   -3.2464   -2.4573 C   0  0  0  0  0  0  0  0  0  0  0  0
    2.1623   -2.1751   -3.4575 C   0  0  0  0  0  0  0  0  0  0  0  0
    1.7161   -0.9357   -3.2098 C   0  0  0  0  0  0  0  0  0  0  0  0
   -0.0091    1.3451   -0.1061 C   0  0  0  0  0  0  0  0  0  0  0  0
    0.3718    0.4800    1.0636 C   0  0  0  0  0  0  0  0  0  0  0  0
    0.0097    0.7601    2.3185 C   0  0  0  0  0  0  0  0  0  0  0  0
   -0.7948    1.9490    2.6234 C   0  0  0  0  0  0  0  0  0  0  0  0
   -1.1688    2.7561    1.6089 C   0  0  0  0  0  0  0  0  0  0  0  0
   -0.7664    2.4522    0.1945 C   0  0  0  0  0  0  0  0  0  0  0  0
    2.0014   -5.7216   -2.0518 C   0  0  0  0  0  0  0  0  0  0  0  0
    3.4756   -4.7602   -3.7519 C   0  0  0  0  0  0  0  0  0  0  0  0
   -1.9209    3.4293    4.2759 C   0  0  0  0  0  0  0  0  0  0  0  0
   -0.8069    1.3658    5.0633 C   0  0  0  0  0  0  0  0  0  0  0  0
  1  2  1  0  0  0  0
  1 10  1  0  0  0  0
  1 16  1  0  0  0  0
  2  4  2  0  0  0  0
  2  9  1  0  0  0  0
  4  6  1  0  0  0  0
  6  7  2  0  0  0  0
  7  8  1  0  0  0  0
  8  9  2  0  0  0  0
 10 11  2  0  0  0  0
 10 15  1  0  0  0  0
 11 12  1  0  0  0  0
 12 13  2  0  0  0  0
 13  3  1  0  0  0  0
 13 14  1  0  0  0  0
 14 15  2  0  0  0  0
 16 17  2  0  0  0  0
 16 21  1  0  0  0  0
 17 18  1  0  0  0  0
 18 19  2  0  0  0  0
 19  5  1  0  0  0  0
 19 20  1  0  0  0  0
 20 21  2  0  0  0  0
 22  3  1  0  0  0  0
 23  3  1  0  0  0  0
 24  5  1  0  0  0  0
 25  5  1  0  0  0  0
M  END
>  <CHROM.1>
57.38801445,-168.92075627,-163.71254069,20.24181088,178.13462261,0.57235868
0.31765728,-0.98563312,0.12611380,1.20347212,-0.89885343

>  <Name>
1q8n_lig

>  <RI>
0

>  <Rbt.Current_Directory>
/home/itssahil/PROJECTS/Mol_Feturizer/New_Systems/rnas/1q8n

>  <Rbt.Executable>
rbdock ($Id: //depot/dev/client3/rdock/2013.1/src/exe/rbdock.cxx#4 $)

>  <Rbt.Library>
libRbt.so (2013.1, Build901 2013/11/27)

>  <Rbt.Parameter_File>
/export/apps/rDock/src/rDock_2013.1_src/data/scripts/dock_solv.prm

>  <Rbt.Receptor>
prm/pocket_docking_3.prm

>  <SCORE>
-53.138

>  <SCORE.INTER>
-53.887

>  <SCORE.INTER.CONST>
1

>  <SCORE.INTER.POLAR>
0

>  <SCORE.INTER.ROT>
5

>  <SCORE.INTER.SOLV>
10.2962

>  <SCORE.INTER.VDW>
-46.2901

>  <SCORE.INTER.norm>
-2.15548

>  <SCORE.INTRA>
0.74901

>  <SCORE.INTRA.DIHEDRAL>
1.54558

>  <SCORE.INTRA.DIHEDRAL.0>
2.1627

>  <SCORE.INTRA.POLAR>
0

>  <SCORE.INTRA.POLAR.0>
0

>  <SCORE.INTRA.REPUL>
0

>  <SCORE.INTRA.REPUL.0>
0

>  <SCORE.INTRA.SOLV>
0.0238816

>  <SCORE.INTRA.SOLV.lig_0>
-5.95779

>  <SCORE.INTRA.VDW>
-0.0357197

>  <SCORE.INTRA.VDW.0>
3.81702

>  <SCORE.INTRA.norm>
0.0299604

>  <SCORE.RESTR>
0

>  <SCORE.RESTR.CAVITY>
0

>  <SCORE.RESTR.norm>
0

>  <SCORE.SYSTEM>
0

>  <SCORE.SYSTEM.CONST>
0

>  <SCORE.SYSTEM.DIHEDRAL>
0

>  <SCORE.SYSTEM.SOLV>
0

>  <SCORE.SYSTEM.norm>
0

>  <SCORE.heavy>
25

>  <SCORE.norm>
-2.12552

>  <RMSD>
0.683

$$$$
1q8n_lig
 OpenBabel11021811403D
libRbt.so/2013.1/901 2013/11/27
 25 27  0  0  0  0  0  0  0  0999 V2000
    0.4841    0.9305   -1.6575 C   0  0  0  0  0  0  0  0  0  0  0  0
    0.4528    2.0035   -2.8876 C   0  0  0  0  0  0  0  0  0  0  0  0
    2.4421   -4.5833   -2.7466 N   0  0  0  0  0  0  0  0  0  0  0  0
   -0.1901    1.7795   -4.0587 C   0  0  0  0  0  0  0  0  0  0  0  0
   -1.1600    2.2403    3.9544 N   0  0  0  0  0  0  0  0  0  0  0  0
   -0.1891    2.7781   -5.1527 C   0  0  0  0  0  0  0  0  0  0  0  0
    0.4662    3.9505   -4.9911 C   0  0  0  0  0  0  0  0  0  0  0  0
    1.1525    4.2124   -3.7476 C   0  0  0  0  0  0  0  0  0  0  0  0
    1.1459    3.3034   -2.7695 C   0  0  0  0  0  0  0  0  0  0  0  0
    1.0211   -0.5794   -1.9613 C   0  0  0  0  0  0  0  0  0  0  0  0
    1.6137   -0.8883   -3.1333 C   0  0  0  0  0  0  0  0  0  0  0  0
    2.1099   -2.2612   -3.4278 C   0  0  0  0  0  0  0  0  0  0  0  0
    1.9764   -3.2500   -2.5037 C   0  0  0  0  0  0  0  0  0  0  0  0
    1.3324   -2.9266   -1.2166 C   0  0  0  0  0  0  0  0  0  0  0  0
    0.8898   -1.6860   -0.9686 C   0  0  0  0  0  0  0  0  0  0  0  0
   -0.0131    1.3399   -0.1298 C   0  0  0  0  0  0  0  0  0  0  0  0
    0.3981    0.4922    1.0423 C   0  0  0  0  0  0  0  0  0  0  0  0
    0.0397    0.7722    2.2983 C   0  0  0  0  0  0  0  0  0  0  0  0
   -0.7906    1.9436    2.6021 C   0  0  0  0  0  0  0  0  0  0  0  0
   -1.1922    2.7344    1.5854 C   0  0  0  0  0  0  0  0  0  0  0  0
   -0.7943    2.4305    0.1697 C   0  0  0  0  0  0  0  0  0  0  0  0
    1.9911   -5.7021   -1.9763 C   0  0  0  0  0  0  0  0  0  0  0  0
    3.3890   -4.8355   -3.7882 C   0  0  0  0  0  0  0  0  0  0  0  0
   -0.7903    1.3521    5.0188 C   0  0  0  0  0  0  0  0  0  0  0  0
   -1.9039    3.4350    4.2840 C   0  0  0  0  0  0  0  0  0  0  0  0
  1  2  1  0  0  0  0
  1 10  1  0  0  0  0
  1 16  1  0  0  0  0
  2  4  2  0  0  0  0
  2  9  1  0  0  0  0
  4  6  1  0  0  0  0
  6  7  2  0  0  0  0
  7  8  1  0  0  0  0
  8  9  2  0  0  0  0
 10 11  2  0  0  0  0
 10 15  1  0  0  0  0
 11 12  1  0  0  0  0
 12 13  2  0  0  0  0
 13  3  1  0  0  0  0
 13 14  1  0  0  0  0
 14 15  2  0  0  0  0
 16 17  2  0  0  0  0
 16 21  1  0  0  0  0
 17 18  1  0  0  0  0
 18 19  2  0  0  0  0
 19  5  1  0  0  0  0
 19 20  1  0  0  0  0
 20 21  2  0  0  0  0
 22  3  1  0  0  0  0
 23  3  1  0  0  0  0
 24  5  1  0  0  0  0
 25  5  1  0  0  0  0
M  END
>  <CHROM.1>
55.13906508,9.94246457,-161.91221750,-162.03143231,-3.74961044,0.55899337
0.30745638,-0.99056969,0.11721428,1.20890095,-0.89768245

>  <Name>
1q8n_lig

>  <RI>
0

>  <Rbt.Current_Directory>
/home/itssahil/PROJECTS/Mol_Feturizer/New_Systems/rnas/1q8n

>  <Rbt.Executable>
rbdock ($Id: //depot/dev/client3/rdock/2013.1/src/exe/rbdock.cxx#4 $)

>  <Rbt.Library>
libRbt.so (2013.1, Build901 2013/11/27)

>  <Rbt.Parameter_File>
/export/apps/rDock/src/rDock_2013.1_src/data/scripts/dock_solv.prm

>  <Rbt.Receptor>
prm/pocket_docking_3.prm

>  <SCORE>
-53.6762

>  <SCORE.INTER>
-54.2442

>  <SCORE.INTER.CONST>
1

>  <SCORE.INTER.POLAR>
0

>  <SCORE.INTER.ROT>
5

>  <SCORE.INTER.SOLV>
10.2967

>  <SCORE.INTER.VDW>
-46.5284

>  <SCORE.INTER.norm>
-2.16977

>  <SCORE.INTRA>
0.568049

>  <SCORE.INTRA.DIHEDRAL>
1.27188

>  <SCORE.INTRA.DIHEDRAL.0>
2.1627

>  <SCORE.INTRA.POLAR>
0

>  <SCORE.INTRA.POLAR.0>
0

>  <SCORE.INTRA.REPUL>
0

>  <SCORE.INTRA.REPUL.0>
0

>  <SCORE.INTRA.SOLV>
0.0262947

>  <SCORE.INTRA.SOLV.lig_0>
-5.95779

>  <SCORE.INTRA.VDW>
-0.0810397

>  <SCORE.INTRA.VDW.0>
3.81702

>  <SCORE.INTRA.norm>
0.022722

>  <SCORE.RESTR>
0

>  <SCORE.RESTR.CAVITY>
0

>  <SCORE.RESTR.norm>
0

>  <SCORE.SYSTEM>
0

>  <SCORE.SYSTEM.CONST>
0

>  <SCORE.SYSTEM.DIHEDRAL>
0

>  <SCORE.SYSTEM.SOLV>
0

>  <SCORE.SYSTEM.norm>
0

>  <SCORE.heavy>
25

>  <SCORE.norm>
-2.14705

>  <RMSD>
0.683

$$$$
1q8n_lig
 OpenBabel11021811413D
libRbt.so/2013.1/901 2013/11/27
 25 27  0  0  0  0  0  0  0  0999 V2000
    0.6635    1.0517   -1.8773 C   0  0  0  0  0  0  0  0  0  0  0  0
    0.5951    2.1541   -3.0796 C   0  0  0  0  0  0  0  0  0  0  0  0
    2.7856   -4.3698   -3.1123 N   0  0  0  0  0  0  0  0  0  0  0  0
    1.1841    3.3721   -3.0114 C   0  0  0  0  0  0  0  0  0  0  0  0
   -1.0666    2.1214    3.7596 N   0  0  0  0  0  0  0  0  0  0  0  0
    1.0930    4.3462   -4.1234 C   0  0  0  0  0  0  0  0  0  0  0  0
    0.4075    4.0236   -5.2442 C   0  0  0  0  0  0  0  0  0  0  0  0
   -0.2223    2.7275   -5.3404 C   0  0  0  0  0  0  0  0  0  0  0  0
   -0.1346    1.8586   -4.3302 C   0  0  0  0  0  0  0  0  0  0  0  0
    1.2473   -0.4321   -2.2203 C   0  0  0  0  0  0  0  0  0  0  0  0
    2.2057   -0.6081   -3.1534 C   0  0  0  0  0  0  0  0  0  0  0  0
    2.7504   -1.9552   -3.4796 C   0  0  0  0  0  0  0  0  0  0  0  0
    2.2869   -3.0563   -2.8299 C   0  0  0  0  0  0  0  0  0  0  0  0
    1.2405   -2.8793   -1.8054 C   0  0  0  0  0  0  0  0  0  0  0  0
    0.7601   -1.6597   -1.5255 C   0  0  0  0  0  0  0  0  0  0  0  0
    0.1574    1.4063   -0.3388 C   0  0  0  0  0  0  0  0  0  0  0  0
    0.2526    0.3615    0.7387 C   0  0  0  0  0  0  0  0  0  0  0  0
   -0.1285    0.5858    1.9991 C   0  0  0  0  0  0  0  0  0  0  0  0
   -0.6709    1.8885    2.4022 C   0  0  0  0  0  0  0  0  0  0  0  0
   -0.7835    2.8595    1.4722 C   0  0  0  0  0  0  0  0  0  0  0  0
   -0.3568    2.6194    0.0526 C   0  0  0  0  0  0  0  0  0  0  0  0
    3.8474   -4.5997   -4.0441 C   0  0  0  0  0  0  0  0  0  0  0  0
    2.2236   -5.5089   -2.4551 C   0  0  0  0  0  0  0  0  0  0  0  0
   -1.7915    3.3089    4.1102 C   0  0  0  0  0  0  0  0  0  0  0  0
   -0.7555    1.1728    4.8051 C   0  0  0  0  0  0  0  0  0  0  0  0
  1  2  1  0  0  0  0
  1 10  1  0  0  0  0
  1 16  1  0  0  0  0
  2  4  2  0  0  0  0
  2  9  1  0  0  0  0
  4  6  1  0  0  0  0
  6  7  2  0  0  0  0
  7  8  1  0  0  0  0
  8  9  2  0  0  0  0
 10 11  2  0  0  0  0
 10 15  1  0  0  0  0
 11 12  1  0  0  0  0
 12 13  2  0  0  0  0
 13  3  1  0  0  0  0
 13 14  1  0  0  0  0
 14 15  2  0  0  0  0
 16 17  2  0  0  0  0
 16 21  1  0  0  0  0
 17 18  1  0  0  0  0
 18 19  2  0  0  0  0
 19  5  1  0  0  0  0
 19 20  1  0  0  0  0
 20 21  2  0  0  0  0
 22  3  1  0  0  0  0
 23  3  1  0  0  0  0
 24  5  1  0  0  0  0
 25  5  1  0  0  0  0
M  END
>  <CHROM.1>
-124.06298352,32.13919794,-179.39867397,3.23065693,-169.93234155,0.71645922
0.37799741,-1.25031946,2.97092807,-1.18087687,2.23106562

>  <Name>
1q8n_lig

>  <RI>
0

>  <Rbt.Current_Directory>
/home/itssahil/PROJECTS/Mol_Feturizer/New_Systems/rnas/1q8n

>  <Rbt.Executable>
rbdock ($Id: //depot/dev/client3/rdock/2013.1/src/exe/rbdock.cxx#4 $)

>  <Rbt.Library>
libRbt.so (2013.1, Build901 2013/11/27)

>  <Rbt.Parameter_File>
/export/apps/rDock/src/rDock_2013.1_src/data/scripts/dock_solv.prm

>  <Rbt.Receptor>
prm/pocket_docking_6.prm

>  <SCORE>
-52.1121

>  <SCORE.INTER>
-52.3571

>  <SCORE.INTER.CONST>
1

>  <SCORE.INTER.POLAR>
0

>  <SCORE.INTER.ROT>
5

>  <SCORE.INTER.SOLV>
10.1143

>  <SCORE.INTER.VDW>
-45.2095

>  <SCORE.INTER.norm>
-2.09428

>  <SCORE.INTRA>
0.244936

>  <SCORE.INTRA.DIHEDRAL>
0.427773

>  <SCORE.INTRA.DIHEDRAL.0>
2.1627

>  <SCORE.INTRA.POLAR>
0

>  <SCORE.INTRA.POLAR.0>
0

>  <SCORE.INTRA.REPUL>
0

>  <SCORE.INTRA.REPUL.0>
0

>  <SCORE.INTRA.SOLV>
0.0174062

>  <SCORE.INTRA.SOLV.lig_0>
-5.95779

>  <SCORE.INTRA.VDW>
0.0223458

>  <SCORE.INTRA.VDW.0>
3.81702

>  <SCORE.INTRA.norm>
0.00979743

>  <SCORE.RESTR>
0

>  <SCORE.RESTR.CAVITY>
0

>  <SCORE.RESTR.norm>
0

>  <SCORE.SYSTEM>
0

>  <SCORE.SYSTEM.CONST>
0

>  <SCORE.SYSTEM.DIHEDRAL>
0

>  <SCORE.SYSTEM.SOLV>
0

>  <SCORE.SYSTEM.norm>
0

>  <SCORE.heavy>
25

>  <SCORE.norm>
-2.08449

>  <RMSD>
0.684

$$$$
1q8n_lig
 OpenBabel11021811413D
libRbt.so/2013.1/901 2013/11/27
 25 27  0  0  0  0  0  0  0  0999 V2000
    0.6615    0.8934   -1.6330 C   0  0  0  0  0  0  0  0  0  0  0  0
    0.6173    2.0191   -2.8147 C   0  0  0  0  0  0  0  0  0  0  0  0
    2.6067   -4.5574   -3.0211 N   0  0  0  0  0  0  0  0  0  0  0  0
    1.2578    3.2101   -2.7367 C   0  0  0  0  0  0  0  0  0  0  0  0
   -1.1828    2.3348    3.8837 N   0  0  0  0  0  0  0  0  0  0  0  0
    1.1872    4.2070   -3.8299 C   0  0  0  0  0  0  0  0  0  0  0  0
    0.4686    3.9333   -4.9428 C   0  0  0  0  0  0  0  0  0  0  0  0
   -0.2165    2.6663   -5.0494 C   0  0  0  0  0  0  0  0  0  0  0  0
   -0.1468    1.7765   -4.0561 C   0  0  0  0  0  0  0  0  0  0  0  0
    1.1938   -0.6020   -2.0083 C   0  0  0  0  0  0  0  0  0  0  0  0
    0.9890   -1.6460   -1.1785 C   0  0  0  0  0  0  0  0  0  0  0  0
    1.4680   -3.0178   -1.5048 C   0  0  0  0  0  0  0  0  0  0  0  0
    2.1314   -3.2523   -2.6685 C   0  0  0  0  0  0  0  0  0  0  0  0
    2.3608   -2.1209   -3.5869 C   0  0  0  0  0  0  0  0  0  0  0  0
    1.9246   -0.8921   -3.2767 C   0  0  0  0  0  0  0  0  0  0  0  0
    0.1816    1.2359   -0.0834 C   0  0  0  0  0  0  0  0  0  0  0  0
   -0.4331    2.5719    0.2305 C   0  0  0  0  0  0  0  0  0  0  0  0
   -0.8492    2.9068    1.4549 C   0  0  0  0  0  0  0  0  0  0  0  0
   -0.7232    1.9689    2.5767 C   0  0  0  0  0  0  0  0  0  0  0  0
   -0.1725    0.7582    2.3503 C   0  0  0  0  0  0  0  0  0  0  0  0
    0.2973    0.3701    0.9779 C   0  0  0  0  0  0  0  0  0  0  0  0
    2.0844   -5.7480   -2.4227 C   0  0  0  0  0  0  0  0  0  0  0  0
    3.6367   -4.7067   -4.0019 C   0  0  0  0  0  0  0  0  0  0  0  0
   -1.9288    3.5448    4.0777 C   0  0  0  0  0  0  0  0  0  0  0  0
   -0.9160    1.5004    5.0336 C   0  0  0  0  0  0  0  0  0  0  0  0
  1  2  1  0  0  0  0
  1 10  1  0  0  0  0
  1 16  1  0  0  0  0
  2  4  2  0  0  0  0
  2  9  1  0  0  0  0
  4  6  1  0  0  0  0
  6  7  2  0  0  0  0
  7  8  1  0  0  0  0
  8  9  2  0  0  0  0
 10 11  2  0  0  0  0
 10 15  1  0  0  0  0
 11 12  1  0  0  0  0
 12 13  2  0  0  0  0
 13  3  1  0  0  0  0
 13 14  1  0  0  0  0
 14 15  2  0  0  0  0
 16 17  2  0  0  0  0
 16 21  1  0  0  0  0
 17 18  1  0  0  0  0
 18 19  2  0  0  0  0
 19  5  1  0  0  0  0
 19 20  1  0  0  0  0
 20 21  2  0  0  0  0
 22  3  1  0  0  0  0
 23  3  1  0  0  0  0
 24  5  1  0  0  0  0
 25  5  1  0  0  0  0
M  END
>  <CHROM.1>
-123.32126005,-165.43828178,5.87246636,19.82786472,8.27307162,0.66136418
0.32469310,-1.07791047,0.09611614,1.20058321,-0.87050331

>  <Name>
1q8n_lig

>  <RI>
0

>  <Rbt.Current_Directory>
/home/itssahil/PROJECTS/Mol_Feturizer/New_Systems/rnas/1q8n

>  <Rbt.Executable>
rbdock ($Id: //depot/dev/client3/rdock/2013.1/src/exe/rbdock.cxx#4 $)

>  <Rbt.Library>
libRbt.so (2013.1, Build901 2013/11/27)

>  <Rbt.Parameter_File>
/export/apps/rDock/src/rDock_2013.1_src/data/scripts/dock_solv.prm

>  <Rbt.Receptor>
prm/pocket_docking_6.prm

>  <SCORE>
-53.6767

>  <SCORE.INTER>
-54.248

>  <SCORE.INTER.CONST>
1

>  <SCORE.INTER.POLAR>
0

>  <SCORE.INTER.ROT>
5

>  <SCORE.INTER.SOLV>
10.1981

>  <SCORE.INTER.VDW>
-46.4981

>  <SCORE.INTER.norm>
-2.16992

>  <SCORE.INTRA>
0.571296

>  <SCORE.INTRA.DIHEDRAL>
1.73537

>  <SCORE.INTRA.DIHEDRAL.0>
2.1627

>  <SCORE.INTRA.POLAR>
0

>  <SCORE.INTRA.POLAR.0>
0

>  <SCORE.INTRA.REPUL>
0

>  <SCORE.INTRA.REPUL.0>
0

>  <SCORE.INTRA.SOLV>
0.0221508

>  <SCORE.INTRA.SOLV.lig_0>
-5.95779

>  <SCORE.INTRA.VDW>
-0.307463

>  <SCORE.INTRA.VDW.0>
3.81702

>  <SCORE.INTRA.norm>
0.0228519

>  <SCORE.RESTR>
0

>  <SCORE.RESTR.CAVITY>
0

>  <SCORE.RESTR.norm>
0

>  <SCORE.SYSTEM>
0

>  <SCORE.SYSTEM.CONST>
0

>  <SCORE.SYSTEM.DIHEDRAL>
0

>  <SCORE.SYSTEM.SOLV>
0

>  <SCORE.SYSTEM.norm>
0

>  <SCORE.heavy>
25

>  <SCORE.norm>
-2.14707

>  <RMSD>
0.684

$$$$
1q8n_lig
 OpenBabel11021811403D
libRbt.so/2013.1/901 2013/11/27
 25 27  0  0  0  0  0  0  0  0999 V2000
    0.4608    0.8949   -1.6411 C   0  0  0  0  0  0  0  0  0  0  0  0
    0.4314    1.9476   -2.8887 C   0  0  0  0  0  0  0  0  0  0  0  0
    2.4130   -4.6383   -2.6384 N   0  0  0  0  0  0  0  0  0  0  0  0
   -0.2534    1.7274   -4.0365 C   0  0  0  0  0  0  0  0  0  0  0  0
   -1.1922    2.2916    3.9472 N   0  0  0  0  0  0  0  0  0  0  0  0
   -0.2492    2.7068   -5.1476 C   0  0  0  0  0  0  0  0  0  0  0  0
    0.4521    3.8572   -5.0260 C   0  0  0  0  0  0  0  0  0  0  0  0
    1.1838    4.1149   -3.8078 C   0  0  0  0  0  0  0  0  0  0  0  0
    1.1738    3.2232   -2.8139 C   0  0  0  0  0  0  0  0  0  0  0  0
    0.9960   -0.6205   -1.9197 C   0  0  0  0  0  0  0  0  0  0  0  0
    1.5395   -0.9631   -3.1061 C   0  0  0  0  0  0  0  0  0  0  0  0
    2.0332   -2.3416   -3.3781 C   0  0  0  0  0  0  0  0  0  0  0  0
    1.9479   -3.3009   -2.4180 C   0  0  0  0  0  0  0  0  0  0  0  0
    1.3579   -2.9405   -1.1149 C   0  0  0  0  0  0  0  0  0  0  0  0
    0.9167   -1.6954   -0.8875 C   0  0  0  0  0  0  0  0  0  0  0  0
   -0.0366    1.3300   -0.1206 C   0  0  0  0  0  0  0  0  0  0  0  0
    0.3249    0.4697    1.0588 C   0  0  0  0  0  0  0  0  0  0  0  0
   -0.0361    0.7688    2.3096 C   0  0  0  0  0  0  0  0  0  0  0  0
   -0.8198    1.9751    2.6002 C   0  0  0  0  0  0  0  0  0  0  0  0
   -1.1758    2.7787    1.5766 C   0  0  0  0  0  0  0  0  0  0  0  0
   -0.7745    2.4536    0.1666 C   0  0  0  0  0  0  0  0  0  0  0  0
    3.3692   -4.9567   -3.6547 C   0  0  0  0  0  0  0  0  0  0  0  0
    1.9237   -5.7120   -1.8302 C   0  0  0  0  0  0  0  0  0  0  0  0
   -1.9258    3.4907    4.2341 C   0  0  0  0  0  0  0  0  0  0  0  0
   -0.8483    1.4174    5.0459 C   0  0  0  0  0  0  0  0  0  0  0  0
  1  2  1  0  0  0  0
  1 10  1  0  0  0  0
  1 16  1  0  0  0  0
  2  4  2  0  0  0  0
  2  9  1  0  0  0  0
  4  6  1  0  0  0  0
  6  7  2  0  0  0  0
  7  8  1  0  0  0  0
  8  9  2  0  0  0  0
 10 11  2  0  0  0  0
 10 15  1  0  0  0  0
 11 12  1  0  0  0  0
 12 13  2  0  0  0  0
 13  3  1  0  0  0  0
 13 14  1  0  0  0  0
 14 15  2  0  0  0  0
 16 17  2  0  0  0  0
 16 21  1  0  0  0  0
 17 18  1  0  0  0  0
 18 19  2  0  0  0  0
 19  5  1  0  0  0  0
 19 20  1  0  0  0  0
 20 21  2  0  0  0  0
 22  3  1  0  0  0  0
 23  3  1  0  0  0  0
 24  5  1  0  0  0  0
 25  5  1  0  0  0  0
M  END
>  <CHROM.1>
57.75923539,7.21903699,-164.45654149,21.21627134,178.23393108,0.53182653
0.27992386,-0.96266343,0.11085549,1.20924744,-0.90744082

>  <Name>
1q8n_lig

>  <RI>
0

>  <Rbt.Current_Directory>
/home/itssahil/PROJECTS/Mol_Feturizer/New_Systems/rnas/1q8n

>  <Rbt.Executable>
rbdock ($Id: //depot/dev/client3/rdock/2013.1/src/exe/rbdock.cxx#4 $)

>  <Rbt.Library>
libRbt.so (2013.1, Build901 2013/11/27)

>  <Rbt.Parameter_File>
/export/apps/rDock/src/rDock_2013.1_src/data/scripts/dock_solv.prm

>  <Rbt.Receptor>
prm/blind_docking_100.prm

>  <SCORE>
-53.6276

>  <SCORE.INTER>
-54.4047

>  <SCORE.INTER.CONST>
1

>  <SCORE.INTER.POLAR>
0

>  <SCORE.INTER.ROT>
5

>  <SCORE.INTER.SOLV>
10.2692

>  <SCORE.INTER.VDW>
-46.6262

>  <SCORE.INTER.norm>
-2.17619

>  <SCORE.INTRA>
0.777119

>  <SCORE.INTRA.DIHEDRAL>
1.68741

>  <SCORE.INTRA.DIHEDRAL.0>
2.1627

>  <SCORE.INTRA.POLAR>
0

>  <SCORE.INTRA.POLAR.0>
0

>  <SCORE.INTRA.REPUL>
0

>  <SCORE.INTRA.REPUL.0>
0

>  <SCORE.INTRA.SOLV>
0.0266902

>  <SCORE.INTRA.SOLV.lig_0>
-5.95779

>  <SCORE.INTRA.VDW>
-0.0799328

>  <SCORE.INTRA.VDW.0>
3.81702

>  <SCORE.INTRA.norm>
0.0310848

>  <SCORE.RESTR>
0

>  <SCORE.RESTR.CAVITY>
0

>  <SCORE.RESTR.norm>
0

>  <SCORE.SYSTEM>
0

>  <SCORE.SYSTEM.CONST>
0

>  <SCORE.SYSTEM.DIHEDRAL>
0

>  <SCORE.SYSTEM.SOLV>
0

>  <SCORE.SYSTEM.norm>
0

>  <SCORE.heavy>
25

>  <SCORE.norm>
-2.1451

>  <RMSD>
0.685

$$$$
1q8n_lig
 OpenBabel11021811403D
libRbt.so/2013.1/901 2013/11/27
 25 27  0  0  0  0  0  0  0  0999 V2000
    0.5771    0.8351   -1.6599 C   0  0  0  0  0  0  0  0  0  0  0  0
    0.4815    1.9386   -2.8594 C   0  0  0  0  0  0  0  0  0  0  0  0
    2.5844   -4.6135   -2.9657 N   0  0  0  0  0  0  0  0  0  0  0  0
   -0.2235    1.7441   -3.9996 C   0  0  0  0  0  0  0  0  0  0  0  0
   -1.1647    2.3316    3.8754 N   0  0  0  0  0  0  0  0  0  0  0  0
   -0.2797    2.7697   -5.0668 C   0  0  0  0  0  0  0  0  0  0  0  0
    0.3850    3.9376   -4.9113 C   0  0  0  0  0  0  0  0  0  0  0  0
    1.1374    4.1682   -3.7002 C   0  0  0  0  0  0  0  0  0  0  0  0
    1.1819    3.2350   -2.7461 C   0  0  0  0  0  0  0  0  0  0  0  0
    1.1276   -0.6566   -2.0230 C   0  0  0  0  0  0  0  0  0  0  0  0
    1.7328   -0.9111   -3.2017 C   0  0  0  0  0  0  0  0  0  0  0  0
    2.2414   -2.2668   -3.5500 C   0  0  0  0  0  0  0  0  0  0  0  0
    2.1070   -3.2950   -2.6703 C   0  0  0  0  0  0  0  0  0  0  0  0
    1.4494   -3.0314   -1.3764 C   0  0  0  0  0  0  0  0  0  0  0  0
    0.9956   -1.8056   -1.0797 C   0  0  0  0  0  0  0  0  0  0  0  0
    0.1309    1.1964   -0.1046 C   0  0  0  0  0  0  0  0  0  0  0  0
   -0.5768    2.4905    0.1885 C   0  0  0  0  0  0  0  0  0  0  0  0
   -0.9713    2.8370    1.4168 C   0  0  0  0  0  0  0  0  0  0  0  0
   -0.7276    1.9546    2.5638 C   0  0  0  0  0  0  0  0  0  0  0  0
   -0.0904    0.7834    2.3566 C   0  0  0  0  0  0  0  0  0  0  0  0
    0.3563    0.3827    0.9801 C   0  0  0  0  0  0  0  0  0  0  0  0
    2.0661   -5.7774   -2.3136 C   0  0  0  0  0  0  0  0  0  0  0  0
    3.6124   -4.8041   -3.9414 C   0  0  0  0  0  0  0  0  0  0  0  0
   -1.9219    3.5346    4.0695 C   0  0  0  0  0  0  0  0  0  0  0  0
   -0.8639    1.5155    5.0299 C   0  0  0  0  0  0  0  0  0  0  0  0
  1  2  1  0  0  0  0
  1 10  1  0  0  0  0
  1 16  1  0  0  0  0
  2  4  2  0  0  0  0
  2  9  1  0  0  0  0
  4  6  1  0  0  0  0
  6  7  2  0  0  0  0
  7  8  1  0  0  0  0
  8  9  2  0  0  0  0
 10 11  2  0  0  0  0
 10 15  1  0  0  0  0
 11 12  1  0  0  0  0
 12 13  2  0  0  0  0
 13  3  1  0  0  0  0
 13 14  1  0  0  0  0
 14 15  2  0  0  0  0
 16 17  2  0  0  0  0
 16 21  1  0  0  0  0
 17 18  1  0  0  0  0
 18 19  2  0  0  0  0
 19  5  1  0  0  0  0
 19 20  1  0  0  0  0
 20 21  2  0  0  0  0
 22  3  1  0  0  0  0
 23  3  1  0  0  0  0
 24  5  1  0  0  0  0
 25  5  1  0  0  0  0
M  END
>  <CHROM.1>
56.53312776,12.82624835,9.61859190,-157.50694599,4.05554693,0.61696443,0.29053964
-1.05519630,0.10920759,1.20302278,-0.91151501

>  <Name>
1q8n_lig

>  <RI>
0

>  <Rbt.Current_Directory>
/home/itssahil/PROJECTS/Mol_Feturizer/New_Systems/rnas/1q8n

>  <Rbt.Executable>
rbdock ($Id: //depot/dev/client3/rdock/2013.1/src/exe/rbdock.cxx#4 $)

>  <Rbt.Library>
libRbt.so (2013.1, Build901 2013/11/27)

>  <Rbt.Parameter_File>
/export/apps/rDock/src/rDock_2013.1_src/data/scripts/dock_solv.prm

>  <Rbt.Receptor>
prm/pocket_docking_4.prm

>  <SCORE>
-53.2843

>  <SCORE.INTER>
-53.8243

>  <SCORE.INTER.CONST>
1

>  <SCORE.INTER.POLAR>
0

>  <SCORE.INTER.ROT>
5

>  <SCORE.INTER.SOLV>
10.2638

>  <SCORE.INTER.VDW>
-46.2375

>  <SCORE.INTER.norm>
-2.15297

>  <SCORE.INTRA>
0.540043

>  <SCORE.INTRA.DIHEDRAL>
1.93393

>  <SCORE.INTRA.DIHEDRAL.0>
2.1627

>  <SCORE.INTRA.POLAR>
0

>  <SCORE.INTRA.POLAR.0>
0

>  <SCORE.INTRA.REPUL>
0

>  <SCORE.INTRA.REPUL.0>
0

>  <SCORE.INTRA.SOLV>
0.0222725

>  <SCORE.INTRA.SOLV.lig_0>
-5.95779

>  <SCORE.INTRA.VDW>
-0.438057

>  <SCORE.INTRA.VDW.0>
3.81702

>  <SCORE.INTRA.norm>
0.0216017

>  <SCORE.RESTR>
0

>  <SCORE.RESTR.CAVITY>
0

>  <SCORE.RESTR.norm>
0

>  <SCORE.SYSTEM>
0

>  <SCORE.SYSTEM.CONST>
0

>  <SCORE.SYSTEM.DIHEDRAL>
0

>  <SCORE.SYSTEM.SOLV>
0

>  <SCORE.SYSTEM.norm>
0

>  <SCORE.heavy>
25

>  <SCORE.norm>
-2.13137

>  <RMSD>
0.686

$$$$
1q8n_lig
 OpenBabel11021811403D
libRbt.so/2013.1/901 2013/11/27
 25 27  0  0  0  0  0  0  0  0999 V2000
    0.5992    0.8538   -1.5810 C   0  0  0  0  0  0  0  0  0  0  0  0
    0.5777    2.0066   -2.7369 C   0  0  0  0  0  0  0  0  0  0  0  0
   -1.2026    2.3358    3.8943 N   0  0  0  0  0  0  0  0  0  0  0  0
    1.1879    3.2088   -2.6051 C   0  0  0  0  0  0  0  0  0  0  0  0
    2.5426   -4.6505   -2.9367 N   0  0  0  0  0  0  0  0  0  0  0  0
    1.1393    4.2301   -3.6767 C   0  0  0  0  0  0  0  0  0  0  0  0
    0.4723    3.9682   -4.8241 C   0  0  0  0  0  0  0  0  0  0  0  0
   -0.1797    2.6900   -4.9880 C   0  0  0  0  0  0  0  0  0  0  0  0
   -0.1303    1.7781   -4.0138 C   0  0  0  0  0  0  0  0  0  0  0  0
    0.1065    1.2549   -0.0788 C   0  0  0  0  0  0  0  0  0  0  0  0
    0.3976    0.4764    0.9839 C   0  0  0  0  0  0  0  0  0  0  0  0
   -0.0439    0.8269    2.3624 C   0  0  0  0  0  0  0  0  0  0  0  0
   -0.7605    1.9613    2.5836 C   0  0  0  0  0  0  0  0  0  0  0  0
   -1.0846    2.8238    1.4316 C   0  0  0  0  0  0  0  0  0  0  0  0
   -0.6809    2.4923    0.1972 C   0  0  0  0  0  0  0  0  0  0  0  0
    1.1058   -0.6922   -1.9001 C   0  0  0  0  0  0  0  0  0  0  0  0
    1.7491   -1.0101   -3.2217 C   0  0  0  0  0  0  0  0  0  0  0  0
    2.1875   -2.2318   -3.5374 C   0  0  0  0  0  0  0  0  0  0  0  0
    2.0591   -3.3465   -2.5916 C   0  0  0  0  0  0  0  0  0  0  0  0
    1.4833   -3.1166   -1.3932 C   0  0  0  0  0  0  0  0  0  0  0  0
    0.9882   -1.7471   -1.0267 C   0  0  0  0  0  0  0  0  0  0  0  0
   -0.9222    1.5410    5.0511 C   0  0  0  0  0  0  0  0  0  0  0  0
   -1.9505    3.5400    4.0840 C   0  0  0  0  0  0  0  0  0  0  0  0
    2.0035   -5.8165   -2.2977 C   0  0  0  0  0  0  0  0  0  0  0  0
    3.5739   -4.8287   -3.9338 C   0  0  0  0  0  0  0  0  0  0  0  0
  1  2  1  0  0  0  0
  1 10  1  0  0  0  0
  1 16  1  0  0  0  0
  2  4  2  0  0  0  0
  2  9  1  0  0  0  0
  4  6  1  0  0  0  0
  6  7  2  0  0  0  0
  7  8  1  0  0  0  0
  8  9  2  0  0  0  0
 10 11  2  0  0  0  0
 10 15  1  0  0  0  0
 11 12  1  0  0  0  0
 12 13  2  0  0  0  0
 13  3  1  0  0  0  0
 13 14  1  0  0  0  0
 14 15  2  0  0  0  0
 16 17  2  0  0  0  0
 16 21  1  0  0  0  0
 17 18  1  0  0  0  0
 18 19  2  0  0  0  0
 19  5  1  0  0  0  0
 19 20  1  0  0  0  0
 20 21  2  0  0  0  0
 22  3  1  0  0  0  0
 23  3  1  0  0  0  0
 24  5  1  0  0  0  0
 25  5  1  0  0  0  0
M  END
>  <CHROM.1>
53.79961825,-163.56732291,9.00748368,-0.15743126,-156.28954209,0.61060635
0.29228734,-1.01901895,3.08218100,-1.20516672,2.27323712

>  <Name>
1q8n_lig

>  <RI>
0

>  <Rbt.Current_Directory>
/home/itssahil/PROJECTS/Mol_Feturizer/New_Systems/rnas/1q8n

>  <Rbt.Executable>
rbdock ($Id: //depot/dev/client3/rdock/2013.1/src/exe/rbdock.cxx#4 $)

>  <Rbt.Library>
libRbt.so (2013.1, Build901 2013/11/27)

>  <Rbt.Parameter_File>
/export/apps/rDock/src/rDock_2013.1_src/data/scripts/dock_solv.prm

>  <Rbt.Receptor>
prm/blind_docking_20.prm

>  <SCORE>
-53.0528

>  <SCORE.INTER>
-53.6521

>  <SCORE.INTER.CONST>
1

>  <SCORE.INTER.POLAR>
0

>  <SCORE.INTER.ROT>
5

>  <SCORE.INTER.SOLV>
10.297

>  <SCORE.INTER.VDW>
-46.1337

>  <SCORE.INTER.norm>
-2.14608

>  <SCORE.INTRA>
0.599209

>  <SCORE.INTRA.DIHEDRAL>
2.06575

>  <SCORE.INTRA.DIHEDRAL.0>
2.1627

>  <SCORE.INTRA.POLAR>
0

>  <SCORE.INTRA.POLAR.0>
0

>  <SCORE.INTRA.REPUL>
0

>  <SCORE.INTRA.REPUL.0>
0

>  <SCORE.INTRA.SOLV>
0.0236647

>  <SCORE.INTRA.SOLV.lig_0>
-5.95779

>  <SCORE.INTRA.VDW>
-0.445499

>  <SCORE.INTRA.VDW.0>
3.81702

>  <SCORE.INTRA.norm>
0.0239683

>  <SCORE.RESTR>
0

>  <SCORE.RESTR.CAVITY>
0

>  <SCORE.RESTR.norm>
0

>  <SCORE.SYSTEM>
0

>  <SCORE.SYSTEM.CONST>
0

>  <SCORE.SYSTEM.DIHEDRAL>
0

>  <SCORE.SYSTEM.SOLV>
0

>  <SCORE.SYSTEM.norm>
0

>  <SCORE.heavy>
25

>  <SCORE.norm>
-2.12211

>  <RMSD>
0.688

$$$$
1q8n_lig
 OpenBabel11021811413D
libRbt.so/2013.1/901 2013/11/27
 25 27  0  0  0  0  0  0  0  0999 V2000
    0.4530    0.9111   -1.6500 C   0  0  0  0  0  0  0  0  0  0  0  0
    0.4026    1.9708   -2.8909 C   0  0  0  0  0  0  0  0  0  0  0  0
    2.4573   -4.5945   -2.6953 N   0  0  0  0  0  0  0  0  0  0  0  0
   -0.3094    1.7615   -4.0241 C   0  0  0  0  0  0  0  0  0  0  0  0
   -1.1703    2.2585    3.9591 N   0  0  0  0  0  0  0  0  0  0  0  0
   -0.3237    2.7469   -5.1299 C   0  0  0  0  0  0  0  0  0  0  0  0
    0.3879    3.8919   -5.0180 C   0  0  0  0  0  0  0  0  0  0  0  0
    1.1487    4.1381   -3.8153 C   0  0  0  0  0  0  0  0  0  0  0  0
    1.1550    3.2411   -2.8261 C   0  0  0  0  0  0  0  0  0  0  0  0
    1.0026   -0.5966   -1.9417 C   0  0  0  0  0  0  0  0  0  0  0  0
    1.5906   -0.9119   -3.1144 C   0  0  0  0  0  0  0  0  0  0  0  0
    2.0981   -2.2829   -3.3981 C   0  0  0  0  0  0  0  0  0  0  0  0
    1.9803   -3.2633   -2.4630 C   0  0  0  0  0  0  0  0  0  0  0  0
    1.3416   -2.9329   -1.1750 C   0  0  0  0  0  0  0  0  0  0  0  0
    0.8886   -1.6941   -0.9369 C   0  0  0  0  0  0  0  0  0  0  0  0
   -0.0375    1.3317   -0.1232 C   0  0  0  0  0  0  0  0  0  0  0  0
    0.3566    0.4777    1.0503 C   0  0  0  0  0  0  0  0  0  0  0  0
    0.0026    0.7659    2.3057 C   0  0  0  0  0  0  0  0  0  0  0  0
   -0.8055    1.9533    2.6075 C   0  0  0  0  0  0  0  0  0  0  0  0
   -1.1912    2.7505    1.5895 C   0  0  0  0  0  0  0  0  0  0  0  0
   -0.7980    2.4374    0.1745 C   0  0  0  0  0  0  0  0  0  0  0  0
    3.4097   -4.8967   -3.7201 C   0  0  0  0  0  0  0  0  0  0  0  0
    1.9843   -5.6782   -1.8908 C   0  0  0  0  0  0  0  0  0  0  0  0
   -0.8095    1.3698    5.0261 C   0  0  0  0  0  0  0  0  0  0  0  0
   -1.9004    3.4626    4.2855 C   0  0  0  0  0  0  0  0  0  0  0  0
  1  2  1  0  0  0  0
  1 10  1  0  0  0  0
  1 16  1  0  0  0  0
  2  4  2  0  0  0  0
  2  9  1  0  0  0  0
  4  6  1  0  0  0  0
  6  7  2  0  0  0  0
  7  8  1  0  0  0  0
  8  9  2  0  0  0  0
 10 11  2  0  0  0  0
 10 15  1  0  0  0  0
 11 12  1  0  0  0  0
 12 13  2  0  0  0  0
 13  3  1  0  0  0  0
 13 14  1  0  0  0  0
 14 15  2  0  0  0  0
 16 17  2  0  0  0  0
 16 21  1  0  0  0  0
 17 18  1  0  0  0  0
 18 19  2  0  0  0  0
 19  5  1  0  0  0  0
 19 20  1  0  0  0  0
 20 21  2  0  0  0  0
 22  3  1  0  0  0  0
 23  3  1  0  0  0  0
 24  5  1  0  0  0  0
 25  5  1  0  0  0  0
M  END
>  <CHROM.1>
59.08726104,9.96846009,-163.70554962,18.52751612,-3.27162286,0.53697264,0.29321890
-0.97593435,0.14316095,1.20522579,-0.93148382

>  <Name>
1q8n_lig

>  <RI>
0

>  <Rbt.Current_Directory>
/home/itssahil/PROJECTS/Mol_Feturizer/New_Systems/rnas/1q8n

>  <Rbt.Executable>
rbdock ($Id: //depot/dev/client3/rdock/2013.1/src/exe/rbdock.cxx#4 $)

>  <Rbt.Library>
libRbt.so (2013.1, Build901 2013/11/27)

>  <Rbt.Parameter_File>
/export/apps/rDock/src/rDock_2013.1_src/data/scripts/dock_solv.prm

>  <Rbt.Receptor>
prm/pocket_docking_8.prm

>  <SCORE>
-53.6965

>  <SCORE.INTER>
-54.2813

>  <SCORE.INTER.CONST>
1

>  <SCORE.INTER.POLAR>
0

>  <SCORE.INTER.ROT>
5

>  <SCORE.INTER.SOLV>
10.3038

>  <SCORE.INTER.VDW>
-46.5555

>  <SCORE.INTER.norm>
-2.17125

>  <SCORE.INTRA>
0.584855

>  <SCORE.INTRA.DIHEDRAL>
1.333

>  <SCORE.INTRA.DIHEDRAL.0>
2.1627

>  <SCORE.INTRA.POLAR>
0

>  <SCORE.INTRA.POLAR.0>
0

>  <SCORE.INTRA.REPUL>
0

>  <SCORE.INTRA.REPUL.0>
0

>  <SCORE.INTRA.SOLV>
0.0236727

>  <SCORE.INTRA.SOLV.lig_0>
-5.95779

>  <SCORE.INTRA.VDW>
-0.0934835

>  <SCORE.INTRA.VDW.0>
3.81702

>  <SCORE.INTRA.norm>
0.0233942

>  <SCORE.RESTR>
0

>  <SCORE.RESTR.CAVITY>
0

>  <SCORE.RESTR.norm>
0

>  <SCORE.SYSTEM>
0

>  <SCORE.SYSTEM.CONST>
0

>  <SCORE.SYSTEM.DIHEDRAL>
0

>  <SCORE.SYSTEM.SOLV>
0

>  <SCORE.SYSTEM.norm>
0

>  <SCORE.heavy>
25

>  <SCORE.norm>
-2.14786

>  <RMSD>
0.688

$$$$
1q8n_lig
 OpenBabel11021811413D
libRbt.so/2013.1/901 2013/11/27
 25 27  0  0  0  0  0  0  0  0999 V2000
    0.6829    0.8702   -1.6698 C   0  0  0  0  0  0  0  0  0  0  0  0
    0.6303    2.0008   -2.8464 C   0  0  0  0  0  0  0  0  0  0  0  0
    2.6308   -4.5809   -3.0529 N   0  0  0  0  0  0  0  0  0  0  0  0
    1.2444    3.2047   -2.7543 C   0  0  0  0  0  0  0  0  0  0  0  0
   -1.1555    2.2724    3.8589 N   0  0  0  0  0  0  0  0  0  0  0  0
    1.1670    4.2055   -3.8435 C   0  0  0  0  0  0  0  0  0  0  0  0
    0.4686    3.9224   -4.9670 C   0  0  0  0  0  0  0  0  0  0  0  0
   -0.1882    2.6420   -5.0886 C   0  0  0  0  0  0  0  0  0  0  0  0
   -0.1126    1.7487   -4.0989 C   0  0  0  0  0  0  0  0  0  0  0  0
    1.2174   -0.6221   -2.0540 C   0  0  0  0  0  0  0  0  0  0  0  0
    1.8615   -0.8566   -3.2161 C   0  0  0  0  0  0  0  0  0  0  0  0
    2.3563   -2.2124   -3.5832 C   0  0  0  0  0  0  0  0  0  0  0  0
    2.1686   -3.2614   -2.7384 C   0  0  0  0  0  0  0  0  0  0  0  0
    1.4678   -3.0199   -1.4630 C   0  0  0  0  0  0  0  0  0  0  0  0
    1.0273   -1.7935   -1.1491 C   0  0  0  0  0  0  0  0  0  0  0  0
    0.2095    1.2049   -0.1166 C   0  0  0  0  0  0  0  0  0  0  0  0
   -0.5013    2.4950    0.1866 C   0  0  0  0  0  0  0  0  0  0  0  0
   -0.9172    2.8206    1.4135 C   0  0  0  0  0  0  0  0  0  0  0  0
   -0.6955    1.9177    2.5490 C   0  0  0  0  0  0  0  0  0  0  0  0
   -0.0566    0.7491    2.3326 C   0  0  0  0  0  0  0  0  0  0  0  0
    0.4140    0.3718    0.9574 C   0  0  0  0  0  0  0  0  0  0  0  0
    3.6221   -4.8241   -4.0563 C   0  0  0  0  0  0  0  0  0  0  0  0
    2.1027   -5.7127   -2.3562 C   0  0  0  0  0  0  0  0  0  0  0  0
   -0.8608    1.4315    4.9834 C   0  0  0  0  0  0  0  0  0  0  0  0
   -1.9177    3.4796    4.0851 C   0  0  0  0  0  0  0  0  0  0  0  0
  1  2  1  0  0  0  0
  1 10  1  0  0  0  0
  1 16  1  0  0  0  0
  2  4  2  0  0  0  0
  2  9  1  0  0  0  0
  4  6  1  0  0  0  0
  6  7  2  0  0  0  0
  7  8  1  0  0  0  0
  8  9  2  0  0  0  0
 10 11  2  0  0  0  0
 10 15  1  0  0  0  0
 11 12  1  0  0  0  0
 12 13  2  0  0  0  0
 13  3  1  0  0  0  0
 13 14  1  0  0  0  0
 14 15  2  0  0  0  0
 16 17  2  0  0  0  0
 16 21  1  0  0  0  0
 17 18  1  0  0  0  0
 18 19  2  0  0  0  0
 19  5  1  0  0  0  0
 19 20  1  0  0  0  0
 20 21  2  0  0  0  0
 22  3  1  0  0  0  0
 23  3  1  0  0  0  0
 24  5  1  0  0  0  0
 25  5  1  0  0  0  0
M  END
>  <CHROM.1>
-124.78053855,13.85571196,10.48889173,17.93268478,-175.84837890,0.67605179
0.28801562,-1.09564859,0.10678185,1.20043843,-0.88432881

>  <Name>
1q8n_lig

>  <RI>
0

>  <Rbt.Current_Directory>
/home/itssahil/PROJECTS/Mol_Feturizer/New_Systems/rnas/1q8n

>  <Rbt.Executable>
rbdock ($Id: //depot/dev/client3/rdock/2013.1/src/exe/rbdock.cxx#4 $)

>  <Rbt.Library>
libRbt.so (2013.1, Build901 2013/11/27)

>  <Rbt.Parameter_File>
/export/apps/rDock/src/rDock_2013.1_src/data/scripts/dock_solv.prm

>  <Rbt.Receptor>
prm/pocket_docking_5.prm

>  <SCORE>
-53.981

>  <SCORE.INTER>
-54.4558

>  <SCORE.INTER.CONST>
1

>  <SCORE.INTER.POLAR>
0

>  <SCORE.INTER.ROT>
5

>  <SCORE.INTER.SOLV>
10.1077

>  <SCORE.INTER.VDW>
-46.6064

>  <SCORE.INTER.norm>
-2.17823

>  <SCORE.INTRA>
0.474782

>  <SCORE.INTRA.DIHEDRAL>
1.27685

>  <SCORE.INTRA.DIHEDRAL.0>
2.1627

>  <SCORE.INTRA.POLAR>
0

>  <SCORE.INTRA.POLAR.0>
0

>  <SCORE.INTRA.REPUL>
0

>  <SCORE.INTRA.REPUL.0>
0

>  <SCORE.INTRA.SOLV>
0.0234496

>  <SCORE.INTRA.SOLV.lig_0>
-5.95779

>  <SCORE.INTRA.VDW>
-0.175369

>  <SCORE.INTRA.VDW.0>
3.81702

>  <SCORE.INTRA.norm>
0.0189913

>  <SCORE.RESTR>
0

>  <SCORE.RESTR.CAVITY>
0

>  <SCORE.RESTR.norm>
0

>  <SCORE.SYSTEM>
0

>  <SCORE.SYSTEM.CONST>
0

>  <SCORE.SYSTEM.DIHEDRAL>
0

>  <SCORE.SYSTEM.SOLV>
0

>  <SCORE.SYSTEM.norm>
0

>  <SCORE.heavy>
25

>  <SCORE.norm>
-2.15924

>  <RMSD>
0.689

$$$$
1q8n_lig
 OpenBabel11021811403D
libRbt.so/2013.1/901 2013/11/27
 25 27  0  0  0  0  0  0  0  0999 V2000
    0.5645    0.8190   -1.6561 C   0  0  0  0  0  0  0  0  0  0  0  0
    0.5088    1.9512   -2.8311 C   0  0  0  0  0  0  0  0  0  0  0  0
   -1.1749    2.3313    3.8311 N   0  0  0  0  0  0  0  0  0  0  0  0
   -0.1268    1.7706   -4.0135 C   0  0  0  0  0  0  0  0  0  0  0  0
    2.5793   -4.6766   -2.9415 N   0  0  0  0  0  0  0  0  0  0  0  0
   -0.1486    2.8224   -5.0563 C   0  0  0  0  0  0  0  0  0  0  0  0
    0.4778    4.0007   -4.8346 C   0  0  0  0  0  0  0  0  0  0  0  0
    1.1560    4.2165   -3.5778 C   0  0  0  0  0  0  0  0  0  0  0  0
    1.1701    3.2598   -2.6464 C   0  0  0  0  0  0  0  0  0  0  0  0
    0.0872    1.2385   -0.1540 C   0  0  0  0  0  0  0  0  0  0  0  0
   -0.5290    2.4156    0.0808 C   0  0  0  0  0  0  0  0  0  0  0  0
   -0.9715    2.8152    1.4455 C   0  0  0  0  0  0  0  0  0  0  0  0
   -0.7628    1.9857    2.5028 C   0  0  0  0  0  0  0  0  0  0  0  0
   -0.0922    0.6942    2.2611 C   0  0  0  0  0  0  0  0  0  0  0  0
    0.3014    0.3511    1.0266 C   0  0  0  0  0  0  0  0  0  0  0  0
    1.0902   -0.7245   -1.9561 C   0  0  0  0  0  0  0  0  0  0  0  0
    1.7570   -1.0458   -3.2652 C   0  0  0  0  0  0  0  0  0  0  0  0
    2.2113   -2.2656   -3.5652 C   0  0  0  0  0  0  0  0  0  0  0  0
    2.0785   -3.3747   -2.6134 C   0  0  0  0  0  0  0  0  0  0  0  0
    1.4819   -3.1416   -1.4259 C   0  0  0  0  0  0  0  0  0  0  0  0
    0.9687   -1.7742   -1.0770 C   0  0  0  0  0  0  0  0  0  0  0  0
   -0.8565    1.5186    4.9654 C   0  0  0  0  0  0  0  0  0  0  0  0
   -1.9303    3.5234    4.0621 C   0  0  0  0  0  0  0  0  0  0  0  0
    2.0241   -5.8448   -2.3206 C   0  0  0  0  0  0  0  0  0  0  0  0
    3.6444   -4.8503   -3.9032 C   0  0  0  0  0  0  0  0  0  0  0  0
  1  2  1  0  0  0  0
  1 10  1  0  0  0  0
  1 16  1  0  0  0  0
  2  4  2  0  0  0  0
  2  9  1  0  0  0  0
  4  6  1  0  0  0  0
  6  7  2  0  0  0  0
  7  8  1  0  0  0  0
  8  9  2  0  0  0  0
 10 11  2  0  0  0  0
 10 15  1  0  0  0  0
 11 12  1  0  0  0  0
 12 13  2  0  0  0  0
 13  3  1  0  0  0  0
 13 14  1  0  0  0  0
 14 15  2  0  0  0  0
 16 17  2  0  0  0  0
 16 21  1  0  0  0  0
 17 18  1  0  0  0  0
 18 19  2  0  0  0  0
 19  5  1  0  0  0  0
 19 20  1  0  0  0  0
 20 21  2  0  0  0  0
 22  3  1  0  0  0  0
 23  3  1  0  0  0  0
 24  5  1  0  0  0  0
 25  5  1  0  0  0  0
M  END
>  <CHROM.1>
-126.73656092,10.04326466,10.85049849,-174.44605381,-155.14533078,0.62358430
0.27100111,-1.05459035,3.09822493,-1.20495691,2.27480926

>  <Name>
1q8n_lig

>  <RI>
0

>  <Rbt.Current_Directory>
/home/itssahil/PROJECTS/Mol_Feturizer/New_Systems/rnas/1q8n

>  <Rbt.Executable>
rbdock ($Id: //depot/dev/client3/rdock/2013.1/src/exe/rbdock.cxx#4 $)

>  <Rbt.Library>
libRbt.so (2013.1, Build901 2013/11/27)

>  <Rbt.Parameter_File>
/export/apps/rDock/src/rDock_2013.1_src/data/scripts/dock_solv.prm

>  <Rbt.Receptor>
prm/blind_docking_60.prm

>  <SCORE>
-52.1837

>  <SCORE.INTER>
-52.8671

>  <SCORE.INTER.CONST>
1

>  <SCORE.INTER.POLAR>
0

>  <SCORE.INTER.ROT>
5

>  <SCORE.INTER.SOLV>
10.3391

>  <SCORE.INTER.VDW>
-45.6245

>  <SCORE.INTER.norm>
-2.11469

>  <SCORE.INTRA>
0.68341

>  <SCORE.INTRA.DIHEDRAL>
2.37603

>  <SCORE.INTRA.DIHEDRAL.0>
2.1627

>  <SCORE.INTRA.POLAR>
0

>  <SCORE.INTRA.POLAR.0>
0

>  <SCORE.INTRA.REPUL>
0

>  <SCORE.INTRA.REPUL.0>
0

>  <SCORE.INTRA.SOLV>
0.0280255

>  <SCORE.INTRA.SOLV.lig_0>
-5.95779

>  <SCORE.INTRA.VDW>
-0.518619

>  <SCORE.INTRA.VDW.0>
3.81702

>  <SCORE.INTRA.norm>
0.0273364

>  <SCORE.RESTR>
0

>  <SCORE.RESTR.CAVITY>
0

>  <SCORE.RESTR.norm>
0

>  <SCORE.SYSTEM>
0

>  <SCORE.SYSTEM.CONST>
0

>  <SCORE.SYSTEM.DIHEDRAL>
0

>  <SCORE.SYSTEM.SOLV>
0

>  <SCORE.SYSTEM.norm>
0

>  <SCORE.heavy>
25

>  <SCORE.norm>
-2.08735

>  <RMSD>
0.690

$$$$
1q8n_lig
 OpenBabel11021811403D
libRbt.so/2013.1/901 2013/11/27
 25 27  0  0  0  0  0  0  0  0999 V2000
    0.5962    0.8564   -1.6842 C   0  0  0  0  0  0  0  0  0  0  0  0
    0.5468    2.0032   -2.8452 C   0  0  0  0  0  0  0  0  0  0  0  0
   -1.1613    2.3034    3.8148 N   0  0  0  0  0  0  0  0  0  0  0  0
   -0.0537    1.8255   -4.0464 C   0  0  0  0  0  0  0  0  0  0  0  0
    2.6085   -4.6258   -3.0291 N   0  0  0  0  0  0  0  0  0  0  0  0
   -0.0709    2.8908   -5.0753 C   0  0  0  0  0  0  0  0  0  0  0  0
    0.5240    4.0789   -4.8217 C   0  0  0  0  0  0  0  0  0  0  0  0
    1.1642    4.2918   -3.5447 C   0  0  0  0  0  0  0  0  0  0  0  0
    1.1747    3.3229   -2.6259 C   0  0  0  0  0  0  0  0  0  0  0  0
    0.1138    1.2581   -0.1788 C   0  0  0  0  0  0  0  0  0  0  0  0
   -0.5299    2.4189    0.0629 C   0  0  0  0  0  0  0  0  0  0  0  0
   -0.9775    2.8020    1.4307 C   0  0  0  0  0  0  0  0  0  0  0  0
   -0.7453    1.9734    2.4837 C   0  0  0  0  0  0  0  0  0  0  0  0
   -0.0444    0.6996    2.2345 C   0  0  0  0  0  0  0  0  0  0  0  0
    0.3533    0.3712    0.9973 C   0  0  0  0  0  0  0  0  0  0  0  0
    1.1205   -0.6841   -2.0014 C   0  0  0  0  0  0  0  0  0  0  0  0
    1.8009   -0.9879   -3.3077 C   0  0  0  0  0  0  0  0  0  0  0  0
    2.2549   -2.2046   -3.6208 C   0  0  0  0  0  0  0  0  0  0  0  0
    2.1080   -3.3274   -2.6872 C   0  0  0  0  0  0  0  0  0  0  0  0
    1.4989   -3.1101   -1.5030 C   0  0  0  0  0  0  0  0  0  0  0  0
    0.9860   -1.7464   -1.1395 C   0  0  0  0  0  0  0  0  0  0  0  0
   -1.9109    3.4865    4.1096 C   0  0  0  0  0  0  0  0  0  0  0  0
   -0.8318    1.4397    4.9059 C   0  0  0  0  0  0  0  0  0  0  0  0
    3.6487   -4.7677   -4.0070 C   0  0  0  0  0  0  0  0  0  0  0  0
    2.0894   -5.8194   -2.4004 C   0  0  0  0  0  0  0  0  0  0  0  0
  1  2  1  0  0  0  0
  1 10  1  0  0  0  0
  1 16  1  0  0  0  0
  2  4  2  0  0  0  0
  2  9  1  0  0  0  0
  4  6  1  0  0  0  0
  6  7  2  0  0  0  0
  7  8  1  0  0  0  0
  8  9  2  0  0  0  0
 10 11  2  0  0  0  0
 10 15  1  0  0  0  0
 11 12  1  0  0  0  0
 12 13  2  0  0  0  0
 13  3  1  0  0  0  0
 13 14  1  0  0  0  0
 14 15  2  0  0  0  0
 16 17  2  0  0  0  0
 16 21  1  0  0  0  0
 17 18  1  0  0  0  0
 18 19  2  0  0  0  0
 19  5  1  0  0  0  0
 19 20  1  0  0  0  0
 20 21  2  0  0  0  0
 22  3  1  0  0  0  0
 23  3  1  0  0  0  0
 24  5  1  0  0  0  0
 25  5  1  0  0  0  0
M  END
>  <CHROM.1>
-128.58150380,11.64972848,11.30282872,3.55551688,22.66683312,0.65369099,0.29946074
-1.08770870,3.10491662,-1.20348863,2.29354035

>  <Name>
1q8n_lig

>  <RI>
0

>  <Rbt.Current_Directory>
/home/itssahil/PROJECTS/Mol_Feturizer/New_Systems/rnas/1q8n

>  <Rbt.Executable>
rbdock ($Id: //depot/dev/client3/rdock/2013.1/src/exe/rbdock.cxx#4 $)

>  <Rbt.Library>
libRbt.so (2013.1, Build901 2013/11/27)

>  <Rbt.Parameter_File>
/export/apps/rDock/src/rDock_2013.1_src/data/scripts/dock_solv.prm

>  <Rbt.Receptor>
prm/pocket_docking_4.prm

>  <SCORE>
-52.0948

>  <SCORE.INTER>
-52.6482

>  <SCORE.INTER.CONST>
1

>  <SCORE.INTER.POLAR>
0

>  <SCORE.INTER.ROT>
5

>  <SCORE.INTER.SOLV>
10.3657

>  <SCORE.INTER.VDW>
-45.4874

>  <SCORE.INTER.norm>
-2.10593

>  <SCORE.INTRA>
0.553441

>  <SCORE.INTRA.DIHEDRAL>
1.94493

>  <SCORE.INTRA.DIHEDRAL.0>
2.1627

>  <SCORE.INTRA.POLAR>
0

>  <SCORE.INTRA.POLAR.0>
0

>  <SCORE.INTRA.REPUL>
0

>  <SCORE.INTRA.REPUL.0>
0

>  <SCORE.INTRA.SOLV>
0.0296915

>  <SCORE.INTRA.SOLV.lig_0>
-5.95779

>  <SCORE.INTRA.VDW>
-0.433869

>  <SCORE.INTRA.VDW.0>
3.81702

>  <SCORE.INTRA.norm>
0.0221376

>  <SCORE.RESTR>
0

>  <SCORE.RESTR.CAVITY>
0

>  <SCORE.RESTR.norm>
0

>  <SCORE.SYSTEM>
0

>  <SCORE.SYSTEM.CONST>
0

>  <SCORE.SYSTEM.DIHEDRAL>
0

>  <SCORE.SYSTEM.SOLV>
0

>  <SCORE.SYSTEM.norm>
0

>  <SCORE.heavy>
25

>  <SCORE.norm>
-2.08379

>  <RMSD>
0.690

$$$$
1q8n_lig
 OpenBabel11021811413D
libRbt.so/2013.1/901 2013/11/27
 25 27  0  0  0  0  0  0  0  0999 V2000
    0.6139    0.8636   -1.6852 C   0  0  0  0  0  0  0  0  0  0  0  0
    0.5235    1.9782   -2.8747 C   0  0  0  0  0  0  0  0  0  0  0  0
    2.6153   -4.5763   -3.0353 N   0  0  0  0  0  0  0  0  0  0  0  0
   -0.1483    1.7810   -4.0344 C   0  0  0  0  0  0  0  0  0  0  0  0
   -1.1252    2.3229    3.8609 N   0  0  0  0  0  0  0  0  0  0  0  0
   -0.2009    2.8171   -5.0916 C   0  0  0  0  0  0  0  0  0  0  0  0
    0.4333    3.9976   -4.9068 C   0  0  0  0  0  0  0  0  0  0  0  0
    1.1499    4.2312   -3.6748 C   0  0  0  0  0  0  0  0  0  0  0  0
    1.1915    3.2885   -2.7300 C   0  0  0  0  0  0  0  0  0  0  0  0
    1.1630   -0.6256   -2.0603 C   0  0  0  0  0  0  0  0  0  0  0  0
    1.8076   -0.8613   -3.2219 C   0  0  0  0  0  0  0  0  0  0  0  0
    2.3157   -2.2144   -3.5809 C   0  0  0  0  0  0  0  0  0  0  0  0
    2.1401   -3.2596   -2.7288 C   0  0  0  0  0  0  0  0  0  0  0  0
    1.4390   -3.0167   -1.4539 C   0  0  0  0  0  0  0  0  0  0  0  0
    0.9865   -1.7929   -1.1473 C   0  0  0  0  0  0  0  0  0  0  0  0
    0.1638    1.2113   -0.1279 C   0  0  0  0  0  0  0  0  0  0  0  0
   -0.4503    2.5462    0.1923 C   0  0  0  0  0  0  0  0  0  0  0  0
   -0.8431    2.8850    1.4233 C   0  0  0  0  0  0  0  0  0  0  0  0
   -0.6905    1.9529    2.5465 C   0  0  0  0  0  0  0  0  0  0  0  0
   -0.1392    0.7434    2.3147 C   0  0  0  0  0  0  0  0  0  0  0  0
    0.3046    0.3510    0.9349 C   0  0  0  0  0  0  0  0  0  0  0  0
    2.0881   -5.7457   -2.4004 C   0  0  0  0  0  0  0  0  0  0  0  0
    3.6503   -4.7595   -4.0052 C   0  0  0  0  0  0  0  0  0  0  0  0
   -1.8826    3.5245    4.0627 C   0  0  0  0  0  0  0  0  0  0  0  0
   -0.8217    1.5010    5.0106 C   0  0  0  0  0  0  0  0  0  0  0  0
  1  2  1  0  0  0  0
  1 10  1  0  0  0  0
  1 16  1  0  0  0  0
  2  4  2  0  0  0  0
  2  9  1  0  0  0  0
  4  6  1  0  0  0  0
  6  7  2  0  0  0  0
  7  8  1  0  0  0  0
  8  9  2  0  0  0  0
 10 11  2  0  0  0  0
 10 15  1  0  0  0  0
 11 12  1  0  0  0  0
 12 13  2  0  0  0  0
 13  3  1  0  0  0  0
 13 14  1  0  0  0  0
 14 15  2  0  0  0  0
 16 17  2  0  0  0  0
 16 21  1  0  0  0  0
 17 18  1  0  0  0  0
 18 19  2  0  0  0  0
 19  5  1  0  0  0  0
 19 20  1  0  0  0  0
 20 21  2  0  0  0  0
 22  3  1  0  0  0  0
 23  3  1  0  0  0  0
 24  5  1  0  0  0  0
 25  5  1  0  0  0  0
M  END
>  <CHROM.1>
54.65532531,14.89127110,5.09543455,-159.25331118,8.82506799,0.65442637,0.31620881
-1.08460259,0.09369154,1.20523395,-0.88875175

>  <Name>
1q8n_lig

>  <RI>
0

>  <Rbt.Current_Directory>
/home/itssahil/PROJECTS/Mol_Feturizer/New_Systems/rnas/1q8n

>  <Rbt.Executable>
rbdock ($Id: //depot/dev/client3/rdock/2013.1/src/exe/rbdock.cxx#4 $)

>  <Rbt.Library>
libRbt.so (2013.1, Build901 2013/11/27)

>  <Rbt.Parameter_File>
/export/apps/rDock/src/rDock_2013.1_src/data/scripts/dock_solv.prm

>  <Rbt.Receptor>
prm/pocket_docking_7.prm

>  <SCORE>
-53.2266

>  <SCORE.INTER>
-53.7707

>  <SCORE.INTER.CONST>
1

>  <SCORE.INTER.POLAR>
0

>  <SCORE.INTER.ROT>
5

>  <SCORE.INTER.SOLV>
10.2571

>  <SCORE.INTER.VDW>
-46.1995

>  <SCORE.INTER.norm>
-2.15083

>  <SCORE.INTRA>
0.544145

>  <SCORE.INTRA.DIHEDRAL>
1.90383

>  <SCORE.INTRA.DIHEDRAL.0>
2.1627

>  <SCORE.INTRA.POLAR>
0

>  <SCORE.INTRA.POLAR.0>
0

>  <SCORE.INTRA.REPUL>
0

>  <SCORE.INTRA.REPUL.0>
0

>  <SCORE.INTRA.SOLV>
0.0258296

>  <SCORE.INTRA.SOLV.lig_0>
-5.95779

>  <SCORE.INTRA.VDW>
-0.420686

>  <SCORE.INTRA.VDW.0>
3.81702

>  <SCORE.INTRA.norm>
0.0217658

>  <SCORE.RESTR>
0

>  <SCORE.RESTR.CAVITY>
0

>  <SCORE.RESTR.norm>
0

>  <SCORE.SYSTEM>
0

>  <SCORE.SYSTEM.CONST>
0

>  <SCORE.SYSTEM.DIHEDRAL>
0

>  <SCORE.SYSTEM.SOLV>
0

>  <SCORE.SYSTEM.norm>
0

>  <SCORE.heavy>
25

>  <SCORE.norm>
-2.12906

>  <RMSD>
0.690

$$$$
1q8n_lig
 OpenBabel11021811403D
libRbt.so/2013.1/901 2013/11/27
 25 27  0  0  0  0  0  0  0  0999 V2000
    0.6062    0.8500   -1.5893 C   0  0  0  0  0  0  0  0  0  0  0  0
    0.5780    1.9999   -2.7479 C   0  0  0  0  0  0  0  0  0  0  0  0
   -1.1862    2.3394    3.8871 N   0  0  0  0  0  0  0  0  0  0  0  0
    1.2025    3.1961   -2.6292 C   0  0  0  0  0  0  0  0  0  0  0  0
    2.5646   -4.6511   -2.9367 N   0  0  0  0  0  0  0  0  0  0  0  0
    1.1472    4.2150   -3.7028 C   0  0  0  0  0  0  0  0  0  0  0  0
    0.4592    3.9570   -4.8386 C   0  0  0  0  0  0  0  0  0  0  0  0
   -0.2084    2.6851   -4.9885 C   0  0  0  0  0  0  0  0  0  0  0  0
   -0.1527    1.7753   -4.0127 C   0  0  0  0  0  0  0  0  0  0  0  0
    0.1158    1.2530   -0.0869 C   0  0  0  0  0  0  0  0  0  0  0  0
    0.3575    0.4467    0.9676 C   0  0  0  0  0  0  0  0  0  0  0  0
   -0.0828    0.7986    2.3460 C   0  0  0  0  0  0  0  0  0  0  0  0
   -0.7473    1.9626    2.5760 C   0  0  0  0  0  0  0  0  0  0  0  0
   -1.0169    2.8555    1.4331 C   0  0  0  0  0  0  0  0  0  0  0  0
   -0.6151    2.5225    0.1985 C   0  0  0  0  0  0  0  0  0  0  0  0
    1.1173   -0.6951   -1.9060 C   0  0  0  0  0  0  0  0  0  0  0  0
    1.7561   -1.0145   -3.2294 C   0  0  0  0  0  0  0  0  0  0  0  0
    2.1977   -2.2355   -3.5432 C   0  0  0  0  0  0  0  0  0  0  0  0
    2.0777   -3.3479   -2.5935 C   0  0  0  0  0  0  0  0  0  0  0  0
    1.5061   -3.1165   -1.3934 C   0  0  0  0  0  0  0  0  0  0  0  0
    1.0075   -1.7477   -1.0289 C   0  0  0  0  0  0  0  0  0  0  0  0
   -0.9171    1.5383    5.0422 C   0  0  0  0  0  0  0  0  0  0  0  0
   -1.9192    3.5523    4.0789 C   0  0  0  0  0  0  0  0  0  0  0  0
    2.0183   -5.8186   -2.3068 C   0  0  0  0  0  0  0  0  0  0  0  0
    3.6067   -4.8269   -3.9230 C   0  0  0  0  0  0  0  0  0  0  0  0
  1  2  1  0  0  0  0
  1 10  1  0  0  0  0
  1 16  1  0  0  0  0
  2  4  2  0  0  0  0
  2  9  1  0  0  0  0
  4  6  1  0  0  0  0
  6  7  2  0  0  0  0
  7  8  1  0  0  0  0
  8  9  2  0  0  0  0
 10 11  2  0  0  0  0
 10 15  1  0  0  0  0
 11 12  1  0  0  0  0
 12 13  2  0  0  0  0
 13  3  1  0  0  0  0
 13 14  1  0  0  0  0
 14 15  2  0  0  0  0
 16 17  2  0  0  0  0
 16 21  1  0  0  0  0
 17 18  1  0  0  0  0
 18 19  2  0  0  0  0
 19  5  1  0  0  0  0
 19 20  1  0  0  0  0
 20 21  2  0  0  0  0
 22  3  1  0  0  0  0
 23  3  1  0  0  0  0
 24  5  1  0  0  0  0
 25  5  1  0  0  0  0
M  END
>  <CHROM.1>
54.90050656,-166.73217312,8.89294047,2.03609439,-155.32912131,0.62109504
0.29021804,-1.02579568,3.07617561,-1.20489302,2.26509927

>  <Name>
1q8n_lig

>  <RI>
0

>  <Rbt.Current_Directory>
/home/itssahil/PROJECTS/Mol_Feturizer/New_Systems/rnas/1q8n

>  <Rbt.Executable>
rbdock ($Id: //depot/dev/client3/rdock/2013.1/src/exe/rbdock.cxx#4 $)

>  <Rbt.Library>
libRbt.so (2013.1, Build901 2013/11/27)

>  <Rbt.Parameter_File>
/export/apps/rDock/src/rDock_2013.1_src/data/scripts/dock_solv.prm

>  <Rbt.Receptor>
prm/blind_docking_100.prm

>  <SCORE>
-53.0808

>  <SCORE.INTER>
-53.7491

>  <SCORE.INTER.CONST>
1

>  <SCORE.INTER.POLAR>
0

>  <SCORE.INTER.ROT>
5

>  <SCORE.INTER.SOLV>
10.2833

>  <SCORE.INTER.VDW>
-46.1938

>  <SCORE.INTER.norm>
-2.14996

>  <SCORE.INTRA>
0.668222

>  <SCORE.INTRA.DIHEDRAL>
2.24213

>  <SCORE.INTRA.DIHEDRAL.0>
2.1627

>  <SCORE.INTRA.POLAR>
0

>  <SCORE.INTRA.POLAR.0>
0

>  <SCORE.INTRA.REPUL>
0

>  <SCORE.INTRA.REPUL.0>
0

>  <SCORE.INTRA.SOLV>
0.0240607

>  <SCORE.INTRA.SOLV.lig_0>
-5.95779

>  <SCORE.INTRA.VDW>
-0.464872

>  <SCORE.INTRA.VDW.0>
3.81702

>  <SCORE.INTRA.norm>
0.0267289

>  <SCORE.RESTR>
0

>  <SCORE.RESTR.CAVITY>
0

>  <SCORE.RESTR.norm>
0

>  <SCORE.SYSTEM>
0

>  <SCORE.SYSTEM.CONST>
0

>  <SCORE.SYSTEM.DIHEDRAL>
0

>  <SCORE.SYSTEM.SOLV>
0

>  <SCORE.SYSTEM.norm>
0

>  <SCORE.heavy>
25

>  <SCORE.norm>
-2.12323

>  <RMSD>
0.691

$$$$
1q8n_lig
 OpenBabel11021811413D
libRbt.so/2013.1/901 2013/11/27
 25 27  0  0  0  0  0  0  0  0999 V2000
    0.6181    0.8332   -1.6760 C   0  0  0  0  0  0  0  0  0  0  0  0
    0.5346    1.9489   -2.8650 C   0  0  0  0  0  0  0  0  0  0  0  0
    2.6245   -4.5967   -3.0587 N   0  0  0  0  0  0  0  0  0  0  0  0
   -0.1319    1.7534   -4.0280 C   0  0  0  0  0  0  0  0  0  0  0  0
   -1.1702    2.2726    3.8596 N   0  0  0  0  0  0  0  0  0  0  0  0
   -0.1782    2.7905   -5.0845 C   0  0  0  0  0  0  0  0  0  0  0  0
    0.4565    3.9701   -4.8958 C   0  0  0  0  0  0  0  0  0  0  0  0
    1.1674    4.2018   -3.6602 C   0  0  0  0  0  0  0  0  0  0  0  0
    1.2035    3.2582   -2.7160 C   0  0  0  0  0  0  0  0  0  0  0  0
    1.1671   -0.6564   -2.0498 C   0  0  0  0  0  0  0  0  0  0  0  0
    0.9618   -1.7047   -1.2256 C   0  0  0  0  0  0  0  0  0  0  0  0
    1.4558   -3.0715   -1.5507 C   0  0  0  0  0  0  0  0  0  0  0  0
    2.1343   -3.2967   -2.7075 C   0  0  0  0  0  0  0  0  0  0  0  0
    2.3646   -2.1606   -3.6197 C   0  0  0  0  0  0  0  0  0  0  0  0
    1.9146   -0.9364   -3.3108 C   0  0  0  0  0  0  0  0  0  0  0  0
    0.1611    1.1801   -0.1205 C   0  0  0  0  0  0  0  0  0  0  0  0
   -0.5958    2.4465    0.1713 C   0  0  0  0  0  0  0  0  0  0  0  0
   -1.0011    2.7799    1.3997 C   0  0  0  0  0  0  0  0  0  0  0  0
   -0.7212    1.9101    2.5480 C   0  0  0  0  0  0  0  0  0  0  0  0
   -0.0394    0.7641    2.3419 C   0  0  0  0  0  0  0  0  0  0  0  0
    0.4199    0.3781    0.9654 C   0  0  0  0  0  0  0  0  0  0  0  0
    2.0921   -5.7947   -2.4843 C   0  0  0  0  0  0  0  0  0  0  0  0
    3.6804   -4.7331   -4.0135 C   0  0  0  0  0  0  0  0  0  0  0  0
   -1.9234    3.4770    4.0612 C   0  0  0  0  0  0  0  0  0  0  0  0
   -0.8855    1.4405    5.0068 C   0  0  0  0  0  0  0  0  0  0  0  0
  1  2  1  0  0  0  0
  1 10  1  0  0  0  0
  1 16  1  0  0  0  0
  2  4  2  0  0  0  0
  2  9  1  0  0  0  0
  4  6  1  0  0  0  0
  6  7  2  0  0  0  0
  7  8  1  0  0  0  0
  8  9  2  0  0  0  0
 10 11  2  0  0  0  0
 10 15  1  0  0  0  0
 11 12  1  0  0  0  0
 12 13  2  0  0  0  0
 13  3  1  0  0  0  0
 13 14  1  0  0  0  0
 14 15  2  0  0  0  0
 16 17  2  0  0  0  0
 16 21  1  0  0  0  0
 17 18  1  0  0  0  0
 18 19  2  0  0  0  0
 19  5  1  0  0  0  0
 19 20  1  0  0  0  0
 20 21  2  0  0  0  0
 22  3  1  0  0  0  0
 23  3  1  0  0  0  0
 24  5  1  0  0  0  0
 25  5  1  0  0  0  0
M  END
>  <CHROM.1>
54.65303184,-163.58943865,12.16057141,20.76110564,1.31209488,0.65495248,0.28855195
-1.09721141,0.09327297,1.19844085,-0.87789133

>  <Name>
1q8n_lig

>  <RI>
0

>  <Rbt.Current_Directory>
/home/itssahil/PROJECTS/Mol_Feturizer/New_Systems/rnas/1q8n

>  <Rbt.Executable>
rbdock ($Id: //depot/dev/client3/rdock/2013.1/src/exe/rbdock.cxx#4 $)

>  <Rbt.Library>
libRbt.so (2013.1, Build901 2013/11/27)

>  <Rbt.Parameter_File>
/export/apps/rDock/src/rDock_2013.1_src/data/scripts/dock_solv.prm

>  <Rbt.Receptor>
prm/pocket_docking_6.prm

>  <SCORE>
-52.955

>  <SCORE.INTER>
-53.424

>  <SCORE.INTER.CONST>
1

>  <SCORE.INTER.POLAR>
0

>  <SCORE.INTER.ROT>
5

>  <SCORE.INTER.SOLV>
10.2276

>  <SCORE.INTER.VDW>
-45.9585

>  <SCORE.INTER.norm>
-2.13696

>  <SCORE.INTRA>
0.468999

>  <SCORE.INTRA.DIHEDRAL>
1.6128

>  <SCORE.INTRA.DIHEDRAL.0>
2.1627

>  <SCORE.INTRA.POLAR>
0

>  <SCORE.INTRA.POLAR.0>
0

>  <SCORE.INTRA.REPUL>
0

>  <SCORE.INTRA.REPUL.0>
0

>  <SCORE.INTRA.SOLV>
0.0208246

>  <SCORE.INTRA.SOLV.lig_0>
-5.95779

>  <SCORE.INTRA.VDW>
-0.347812

>  <SCORE.INTRA.VDW.0>
3.81702

>  <SCORE.INTRA.norm>
0.01876

>  <SCORE.RESTR>
0

>  <SCORE.RESTR.CAVITY>
0

>  <SCORE.RESTR.norm>
0

>  <SCORE.SYSTEM>
0

>  <SCORE.SYSTEM.CONST>
0

>  <SCORE.SYSTEM.DIHEDRAL>
0

>  <SCORE.SYSTEM.SOLV>
0

>  <SCORE.SYSTEM.norm>
0

>  <SCORE.heavy>
25

>  <SCORE.norm>
-2.1182

>  <RMSD>
0.691

$$$$
1q8n_lig
 OpenBabel11021811403D
libRbt.so/2013.1/901 2013/11/27
 25 27  0  0  0  0  0  0  0  0999 V2000
    0.6580    0.8881   -1.6304 C   0  0  0  0  0  0  0  0  0  0  0  0
    0.5979    2.0133   -2.8118 C   0  0  0  0  0  0  0  0  0  0  0  0
    2.6237   -4.5515   -3.0333 N   0  0  0  0  0  0  0  0  0  0  0  0
    1.2395    3.2043   -2.7430 C   0  0  0  0  0  0  0  0  0  0  0  0
   -1.1638    2.3110    3.8985 N   0  0  0  0  0  0  0  0  0  0  0  0
    1.1542    4.2008   -3.8356 C   0  0  0  0  0  0  0  0  0  0  0  0
    0.4205    3.9267   -4.9385 C   0  0  0  0  0  0  0  0  0  0  0  0
   -0.2661    2.6598   -5.0353 C   0  0  0  0  0  0  0  0  0  0  0  0
   -0.1830    1.7704   -4.0427 C   0  0  0  0  0  0  0  0  0  0  0  0
    1.1960   -0.6042   -2.0098 C   0  0  0  0  0  0  0  0  0  0  0  0
    1.0035   -1.6493   -1.1784 C   0  0  0  0  0  0  0  0  0  0  0  0
    1.4878   -3.0184   -1.5084 C   0  0  0  0  0  0  0  0  0  0  0  0
    2.1436   -3.2491   -2.6771 C   0  0  0  0  0  0  0  0  0  0  0  0
    2.3596   -2.1165   -3.5972 C   0  0  0  0  0  0  0  0  0  0  0  0
    1.9187   -0.8902   -3.2838 C   0  0  0  0  0  0  0  0  0  0  0  0
    0.1885    1.2281   -0.0771 C   0  0  0  0  0  0  0  0  0  0  0  0
   -0.5067    2.5266    0.2262 C   0  0  0  0  0  0  0  0  0  0  0  0
   -0.9187    2.8569    1.4532 C   0  0  0  0  0  0  0  0  0  0  0  0
   -0.7080    1.9511    2.5885 C   0  0  0  0  0  0  0  0  0  0  0  0
   -0.0832    0.7750    2.3719 C   0  0  0  0  0  0  0  0  0  0  0  0
    0.3830    0.3924    0.9967 C   0  0  0  0  0  0  0  0  0  0  0  0
    3.6416   -4.7468   -4.0204 C   0  0  0  0  0  0  0  0  0  0  0  0
    2.0871   -5.7144   -2.3970 C   0  0  0  0  0  0  0  0  0  0  0  0
   -1.9236    3.5116    4.0975 C   0  0  0  0  0  0  0  0  0  0  0  0
   -0.8794    1.4799    5.0465 C   0  0  0  0  0  0  0  0  0  0  0  0
  1  2  1  0  0  0  0
  1 10  1  0  0  0  0
  1 16  1  0  0  0  0
  2  4  2  0  0  0  0
  2  9  1  0  0  0  0
  4  6  1  0  0  0  0
  6  7  2  0  0  0  0
  7  8  1  0  0  0  0
  8  9  2  0  0  0  0
 10 11  2  0  0  0  0
 10 15  1  0  0  0  0
 11 12  1  0  0  0  0
 12 13  2  0  0  0  0
 13  3  1  0  0  0  0
 13 14  1  0  0  0  0
 14 15  2  0  0  0  0
 16 17  2  0  0  0  0
 16 21  1  0  0  0  0
 17 18  1  0  0  0  0
 18 19  2  0  0  0  0
 19  5  1  0  0  0  0
 19 20  1  0  0  0  0
 20 21  2  0  0  0  0
 22  3  1  0  0  0  0
 23  3  1  0  0  0  0
 24  5  1  0  0  0  0
 25  5  1  0  0  0  0
M  END
>  <CHROM.1>
-122.85164075,-165.42001876,9.55863683,-160.50125276,4.91181544,0.66065231
0.31653005,-1.07417211,0.12514636,1.19933322,-0.89803000

>  <Name>
1q8n_lig

>  <RI>
0

>  <Rbt.Current_Directory>
/home/itssahil/PROJECTS/Mol_Feturizer/New_Systems/rnas/1q8n

>  <Rbt.Executable>
rbdock ($Id: //depot/dev/client3/rdock/2013.1/src/exe/rbdock.cxx#4 $)

>  <Rbt.Library>
libRbt.so (2013.1, Build901 2013/11/27)

>  <Rbt.Parameter_File>
/export/apps/rDock/src/rDock_2013.1_src/data/scripts/dock_solv.prm

>  <Rbt.Receptor>
prm/pocket_docking_3.prm

>  <SCORE>
-53.8246

>  <SCORE.INTER>
-54.3404

>  <SCORE.INTER.CONST>
1

>  <SCORE.INTER.POLAR>
0

>  <SCORE.INTER.ROT>
5

>  <SCORE.INTER.SOLV>
10.1972

>  <SCORE.INTER.VDW>
-46.5593

>  <SCORE.INTER.norm>
-2.17361

>  <SCORE.INTRA>
0.5158

>  <SCORE.INTRA.DIHEDRAL>
1.51755

>  <SCORE.INTRA.DIHEDRAL.0>
2.1627

>  <SCORE.INTRA.POLAR>
0

>  <SCORE.INTRA.POLAR.0>
0

>  <SCORE.INTRA.REPUL>
0

>  <SCORE.INTRA.REPUL.0>
0

>  <SCORE.INTRA.SOLV>
0.0199363

>  <SCORE.INTRA.SOLV.lig_0>
-5.95779

>  <SCORE.INTRA.VDW>
-0.252941

>  <SCORE.INTRA.VDW.0>
3.81702

>  <SCORE.INTRA.norm>
0.020632

>  <SCORE.RESTR>
0

>  <SCORE.RESTR.CAVITY>
0

>  <SCORE.RESTR.norm>
0

>  <SCORE.SYSTEM>
0

>  <SCORE.SYSTEM.CONST>
0

>  <SCORE.SYSTEM.DIHEDRAL>
0

>  <SCORE.SYSTEM.SOLV>
0

>  <SCORE.SYSTEM.norm>
0

>  <SCORE.heavy>
25

>  <SCORE.norm>
-2.15298

>  <RMSD>
0.692

$$$$
1q8n_lig
 OpenBabel11021811403D
libRbt.so/2013.1/901 2013/11/27
 25 27  0  0  0  0  0  0  0  0999 V2000
    0.6657    0.8897   -1.6284 C   0  0  0  0  0  0  0  0  0  0  0  0
    0.6084    2.0171   -2.8079 C   0  0  0  0  0  0  0  0  0  0  0  0
    2.6271   -4.5496   -3.0382 N   0  0  0  0  0  0  0  0  0  0  0  0
    1.2555    3.2051   -2.7384 C   0  0  0  0  0  0  0  0  0  0  0  0
   -1.1604    2.3061    3.9009 N   0  0  0  0  0  0  0  0  0  0  0  0
    1.1726    4.2037   -3.8292 C   0  0  0  0  0  0  0  0  0  0  0  0
    0.4357    3.9346   -4.9312 C   0  0  0  0  0  0  0  0  0  0  0  0
   -0.2569    2.6710   -5.0287 C   0  0  0  0  0  0  0  0  0  0  0  0
   -0.1759    1.7797   -4.0377 C   0  0  0  0  0  0  0  0  0  0  0  0
    1.2025   -0.6025   -2.0096 C   0  0  0  0  0  0  0  0  0  0  0  0
    1.0007   -1.6504   -1.1840 C   0  0  0  0  0  0  0  0  0  0  0  0
    1.4838   -3.0195   -1.5158 C   0  0  0  0  0  0  0  0  0  0  0  0
    2.1479   -3.2474   -2.6804 C   0  0  0  0  0  0  0  0  0  0  0  0
    2.3740   -2.1117   -3.5942 C   0  0  0  0  0  0  0  0  0  0  0  0
    1.9341   -0.8854   -3.2792 C   0  0  0  0  0  0  0  0  0  0  0  0
    0.1945    1.2275   -0.0751 C   0  0  0  0  0  0  0  0  0  0  0  0
   -0.4909    2.5306    0.2314 C   0  0  0  0  0  0  0  0  0  0  0  0
   -0.9037    2.8594    1.4584 C   0  0  0  0  0  0  0  0  0  0  0  0
   -0.7037    1.9476    2.5908 C   0  0  0  0  0  0  0  0  0  0  0  0
   -0.0880    0.7672    2.3714 C   0  0  0  0  0  0  0  0  0  0  0  0
    0.3789    0.3861    0.9960 C   0  0  0  0  0  0  0  0  0  0  0  0
    3.6423   -4.7446   -4.0281 C   0  0  0  0  0  0  0  0  0  0  0  0
    2.0924   -5.7127   -2.4005 C   0  0  0  0  0  0  0  0  0  0  0  0
   -1.9318    3.4995    4.0986 C   0  0  0  0  0  0  0  0  0  0  0  0
   -0.8652    1.4808    5.0503 C   0  0  0  0  0  0  0  0  0  0  0  0
  1  2  1  0  0  0  0
  1 10  1  0  0  0  0
  1 16  1  0  0  0  0
  2  4  2  0  0  0  0
  2  9  1  0  0  0  0
  4  6  1  0  0  0  0
  6  7  2  0  0  0  0
  7  8  1  0  0  0  0
  8  9  2  0  0  0  0
 10 11  2  0  0  0  0
 10 15  1  0  0  0  0
 11 12  1  0  0  0  0
 12 13  2  0  0  0  0
 13  3  1  0  0  0  0
 13 14  1  0  0  0  0
 14 15  2  0  0  0  0
 16 17  2  0  0  0  0
 16 21  1  0  0  0  0
 17 18  1  0  0  0  0
 18 19  2  0  0  0  0
 19  5  1  0  0  0  0
 19 20  1  0  0  0  0
 20 21  2  0  0  0  0
 22  3  1  0  0  0  0
 23  3  1  0  0  0  0
 24  5  1  0  0  0  0
 25  5  1  0  0  0  0
M  END
>  <CHROM.1>
-122.58686458,-165.02303330,9.12430710,-161.16145244,6.05843988,0.66729516
0.31751034,-1.07296758,0.12020107,1.19946603,-0.89177619

>  <Name>
1q8n_lig

>  <RI>
0

>  <Rbt.Current_Directory>
/home/itssahil/PROJECTS/Mol_Feturizer/New_Systems/rnas/1q8n

>  <Rbt.Executable>
rbdock ($Id: //depot/dev/client3/rdock/2013.1/src/exe/rbdock.cxx#4 $)

>  <Rbt.Library>
libRbt.so (2013.1, Build901 2013/11/27)

>  <Rbt.Parameter_File>
/export/apps/rDock/src/rDock_2013.1_src/data/scripts/dock_solv.prm

>  <Rbt.Receptor>
prm/pocket_docking_3.prm

>  <SCORE>
-53.8279

>  <SCORE.INTER>
-54.3319

>  <SCORE.INTER.CONST>
1

>  <SCORE.INTER.POLAR>
0

>  <SCORE.INTER.ROT>
5

>  <SCORE.INTER.SOLV>
10.1893

>  <SCORE.INTER.VDW>
-46.551

>  <SCORE.INTER.norm>
-2.17328

>  <SCORE.INTRA>
0.50399

>  <SCORE.INTRA.DIHEDRAL>
1.47475

>  <SCORE.INTRA.DIHEDRAL.0>
2.1627

>  <SCORE.INTRA.POLAR>
0

>  <SCORE.INTRA.POLAR.0>
0

>  <SCORE.INTRA.REPUL>
0

>  <SCORE.INTRA.REPUL.0>
0

>  <SCORE.INTRA.SOLV>
0.0194819

>  <SCORE.INTRA.SOLV.lig_0>
-5.95779

>  <SCORE.INTRA.VDW>
-0.243128

>  <SCORE.INTRA.VDW.0>
3.81702

>  <SCORE.INTRA.norm>
0.0201596

>  <SCORE.RESTR>
0

>  <SCORE.RESTR.CAVITY>
0

>  <SCORE.RESTR.norm>
0

>  <SCORE.SYSTEM>
0

>  <SCORE.SYSTEM.CONST>
0

>  <SCORE.SYSTEM.DIHEDRAL>
0

>  <SCORE.SYSTEM.SOLV>
0

>  <SCORE.SYSTEM.norm>
0

>  <SCORE.heavy>
25

>  <SCORE.norm>
-2.15312

>  <RMSD>
0.693

$$$$
1q8n_lig
 OpenBabel11021811403D
libRbt.so/2013.1/901 2013/11/27
 25 27  0  0  0  0  0  0  0  0999 V2000
    0.5968    0.8547   -1.6193 C   0  0  0  0  0  0  0  0  0  0  0  0
    0.5273    1.9680   -2.8115 C   0  0  0  0  0  0  0  0  0  0  0  0
    2.5726   -4.6019   -2.9394 N   0  0  0  0  0  0  0  0  0  0  0  0
   -0.1119    1.7641   -3.9882 C   0  0  0  0  0  0  0  0  0  0  0  0
   -1.2089    2.3231    3.9030 N   0  0  0  0  0  0  0  0  0  0  0  0
   -0.1463    2.7993   -5.0471 C   0  0  0  0  0  0  0  0  0  0  0  0
    0.4718    3.9857   -4.8465 C   0  0  0  0  0  0  0  0  0  0  0  0
    1.1536    4.2264   -3.5962 C   0  0  0  0  0  0  0  0  0  0  0  0
    1.1791    3.2845   -2.6500 C   0  0  0  0  0  0  0  0  0  0  0  0
    1.1385   -0.6393   -1.9863 C   0  0  0  0  0  0  0  0  0  0  0  0
    1.7030   -0.9042   -3.1828 C   0  0  0  0  0  0  0  0  0  0  0  0
    2.2030   -2.2621   -3.5350 C   0  0  0  0  0  0  0  0  0  0  0  0
    2.1021   -3.2817   -2.6408 C   0  0  0  0  0  0  0  0  0  0  0  0
    1.4892   -3.0066   -1.3275 C   0  0  0  0  0  0  0  0  0  0  0  0
    1.0426   -1.7789   -1.0276 C   0  0  0  0  0  0  0  0  0  0  0  0
    0.1331    1.2084   -0.0673 C   0  0  0  0  0  0  0  0  0  0  0  0
   -0.5873    2.4963    0.2223 C   0  0  0  0  0  0  0  0  0  0  0  0
   -0.9961    2.8365    1.4477 C   0  0  0  0  0  0  0  0  0  0  0  0
   -0.7565    1.9530    2.5947 C   0  0  0  0  0  0  0  0  0  0  0  0
   -0.1084    0.7873    2.3906 C   0  0  0  0  0  0  0  0  0  0  0  0
    0.3544    0.3936    1.0173 C   0  0  0  0  0  0  0  0  0  0  0  0
    3.5792   -4.8491   -3.9264 C   0  0  0  0  0  0  0  0  0  0  0  0
    2.0374   -5.7305   -2.2429 C   0  0  0  0  0  0  0  0  0  0  0  0
   -1.9485    3.5369    4.0981 C   0  0  0  0  0  0  0  0  0  0  0  0
   -0.9414    1.4894    5.0532 C   0  0  0  0  0  0  0  0  0  0  0  0
  1  2  1  0  0  0  0
  1 10  1  0  0  0  0
  1 16  1  0  0  0  0
  2  4  2  0  0  0  0
  2  9  1  0  0  0  0
  4  6  1  0  0  0  0
  6  7  2  0  0  0  0
  7  8  1  0  0  0  0
  8  9  2  0  0  0  0
 10 11  2  0  0  0  0
 10 15  1  0  0  0  0
 11 12  1  0  0  0  0
 12 13  2  0  0  0  0
 13  3  1  0  0  0  0
 13 14  1  0  0  0  0
 14 15  2  0  0  0  0
 16 17  2  0  0  0  0
 16 21  1  0  0  0  0
 17 18  1  0  0  0  0
 18 19  2  0  0  0  0
 19  5  1  0  0  0  0
 19 20  1  0  0  0  0
 20 21  2  0  0  0  0
 22  3  1  0  0  0  0
 23  3  1  0  0  0  0
 24  5  1  0  0  0  0
 25  5  1  0  0  0  0
M  END
>  <CHROM.1>
53.33185733,9.81047582,10.64767121,23.35453228,2.49671546,0.62088349,0.30439238
-1.01609789,0.06996834,1.20209835,-0.86887863

>  <Name>
1q8n_lig

>  <RI>
0

>  <Rbt.Current_Directory>
/home/itssahil/PROJECTS/Mol_Feturizer/New_Systems/rnas/1q8n

>  <Rbt.Executable>
rbdock ($Id: //depot/dev/client3/rdock/2013.1/src/exe/rbdock.cxx#4 $)

>  <Rbt.Library>
libRbt.so (2013.1, Build901 2013/11/27)

>  <Rbt.Parameter_File>
/export/apps/rDock/src/rDock_2013.1_src/data/scripts/dock_solv.prm

>  <Rbt.Receptor>
prm/pocket_docking_5.prm

>  <SCORE>
-53.4201

>  <SCORE.INTER>
-54.0213

>  <SCORE.INTER.CONST>
1

>  <SCORE.INTER.POLAR>
0

>  <SCORE.INTER.ROT>
5

>  <SCORE.INTER.SOLV>
10.2613

>  <SCORE.INTER.VDW>
-46.3679

>  <SCORE.INTER.norm>
-2.16085

>  <SCORE.INTRA>
0.601164

>  <SCORE.INTRA.DIHEDRAL>
2.03244

>  <SCORE.INTRA.DIHEDRAL.0>
2.1627

>  <SCORE.INTRA.POLAR>
0

>  <SCORE.INTRA.POLAR.0>
0

>  <SCORE.INTRA.REPUL>
0

>  <SCORE.INTRA.REPUL.0>
0

>  <SCORE.INTRA.SOLV>
0.0277221

>  <SCORE.INTRA.SOLV.lig_0>
-5.95779

>  <SCORE.INTRA.VDW>
-0.428919

>  <SCORE.INTRA.VDW.0>
3.81702

>  <SCORE.INTRA.norm>
0.0240466

>  <SCORE.RESTR>
0

>  <SCORE.RESTR.CAVITY>
0

>  <SCORE.RESTR.norm>
0

>  <SCORE.SYSTEM>
0

>  <SCORE.SYSTEM.CONST>
0

>  <SCORE.SYSTEM.DIHEDRAL>
0

>  <SCORE.SYSTEM.SOLV>
0

>  <SCORE.SYSTEM.norm>
0

>  <SCORE.heavy>
25

>  <SCORE.norm>
-2.1368

>  <RMSD>
0.693

$$$$
1q8n_lig
 OpenBabel11021811403D
libRbt.so/2013.1/901 2013/11/27
 25 27  0  0  0  0  0  0  0  0999 V2000
    0.5088    0.9357   -1.6485 C   0  0  0  0  0  0  0  0  0  0  0  0
    0.4923    2.0157   -2.8728 C   0  0  0  0  0  0  0  0  0  0  0  0
    2.4380   -4.5846   -2.7557 N   0  0  0  0  0  0  0  0  0  0  0  0
    1.1967    3.1726   -2.8585 C   0  0  0  0  0  0  0  0  0  0  0  0
   -1.1661    2.2219    3.9598 N   0  0  0  0  0  0  0  0  0  0  0  0
    1.1494    4.1289   -3.9887 C   0  0  0  0  0  0  0  0  0  0  0  0
    0.3875    3.8515   -5.0715 C   0  0  0  0  0  0  0  0  0  0  0  0
   -0.3663    2.6202   -5.1102 C   0  0  0  0  0  0  0  0  0  0  0  0
   -0.3169    1.7669   -4.0842 C   0  0  0  0  0  0  0  0  0  0  0  0
    1.0377   -0.5760   -1.9572 C   0  0  0  0  0  0  0  0  0  0  0  0
    1.6030   -0.8910   -3.1411 C   0  0  0  0  0  0  0  0  0  0  0  0
    2.0915   -2.2657   -3.4403 C   0  0  0  0  0  0  0  0  0  0  0  0
    1.9788   -3.2498   -2.5086 C   0  0  0  0  0  0  0  0  0  0  0  0
    1.3648   -2.9198   -1.2086 C   0  0  0  0  0  0  0  0  0  0  0  0
    0.9287   -1.6777   -0.9565 C   0  0  0  0  0  0  0  0  0  0  0  0
    0.0045    1.3400   -0.1218 C   0  0  0  0  0  0  0  0  0  0  0  0
    0.3801    0.4682    1.0447 C   0  0  0  0  0  0  0  0  0  0  0  0
    0.0145    0.7427    2.2998 C   0  0  0  0  0  0  0  0  0  0  0  0
   -0.7887    1.9316    2.6082 C   0  0  0  0  0  0  0  0  0  0  0  0
   -1.1579    2.7445    1.5966 C   0  0  0  0  0  0  0  0  0  0  0  0
   -0.7516    2.4470    0.1820 C   0  0  0  0  0  0  0  0  0  0  0  0
    3.3534   -4.8943   -3.8115 C   0  0  0  0  0  0  0  0  0  0  0  0
    1.9842   -5.6645   -1.9352 C   0  0  0  0  0  0  0  0  0  0  0  0
   -0.8006    1.3299    5.0224 C   0  0  0  0  0  0  0  0  0  0  0  0
   -1.9140    3.4140    4.2903 C   0  0  0  0  0  0  0  0  0  0  0  0
  1  2  1  0  0  0  0
  1 10  1  0  0  0  0
  1 16  1  0  0  0  0
  2  4  2  0  0  0  0
  2  9  1  0  0  0  0
  4  6  1  0  0  0  0
  6  7  2  0  0  0  0
  7  8  1  0  0  0  0
  8  9  2  0  0  0  0
 10 11  2  0  0  0  0
 10 15  1  0  0  0  0
 11 12  1  0  0  0  0
 12 13  2  0  0  0  0
 13  3  1  0  0  0  0
 13 14  1  0  0  0  0
 14 15  2  0  0  0  0
 16 17  2  0  0  0  0
 16 21  1  0  0  0  0
 17 18  1  0  0  0  0
 18 19  2  0  0  0  0
 19  5  1  0  0  0  0
 19 20  1  0  0  0  0
 20 21  2  0  0  0  0
 22  3  1  0  0  0  0
 23  3  1  0  0  0  0
 24  5  1  0  0  0  0
 25  5  1  0  0  0  0
M  END
>  <CHROM.1>
-119.64613785,8.12494583,-163.11592345,17.48327233,-2.06600582,0.54930397
0.28422762,-1.00252053,0.16515018,1.20737164,-0.93164038

>  <Name>
1q8n_lig

>  <RI>
0

>  <Rbt.Current_Directory>
/home/itssahil/PROJECTS/Mol_Feturizer/New_Systems/rnas/1q8n

>  <Rbt.Executable>
rbdock ($Id: //depot/dev/client3/rdock/2013.1/src/exe/rbdock.cxx#4 $)

>  <Rbt.Library>
libRbt.so (2013.1, Build901 2013/11/27)

>  <Rbt.Parameter_File>
/export/apps/rDock/src/rDock_2013.1_src/data/scripts/dock_solv.prm

>  <Rbt.Receptor>
prm/blind_docking_60.prm

>  <SCORE>
-54.1309

>  <SCORE.INTER>
-54.701

>  <SCORE.INTER.CONST>
1

>  <SCORE.INTER.POLAR>
0

>  <SCORE.INTER.ROT>
5

>  <SCORE.INTER.SOLV>
10.1636

>  <SCORE.INTER.VDW>
-46.7885

>  <SCORE.INTER.norm>
-2.18804

>  <SCORE.INTRA>
0.570163

>  <SCORE.INTRA.DIHEDRAL>
1.1708

>  <SCORE.INTRA.DIHEDRAL.0>
2.1627

>  <SCORE.INTRA.POLAR>
0

>  <SCORE.INTRA.POLAR.0>
0

>  <SCORE.INTRA.REPUL>
0

>  <SCORE.INTRA.REPUL.0>
0

>  <SCORE.INTRA.SOLV>
0.0254996

>  <SCORE.INTRA.SOLV.lig_0>
-5.95779

>  <SCORE.INTRA.VDW>
-0.0279885

>  <SCORE.INTRA.VDW.0>
3.81702

>  <SCORE.INTRA.norm>
0.0228065

>  <SCORE.RESTR>
0

>  <SCORE.RESTR.CAVITY>
0

>  <SCORE.RESTR.norm>
0

>  <SCORE.SYSTEM>
0

>  <SCORE.SYSTEM.CONST>
0

>  <SCORE.SYSTEM.DIHEDRAL>
0

>  <SCORE.SYSTEM.SOLV>
0

>  <SCORE.SYSTEM.norm>
0

>  <SCORE.heavy>
25

>  <SCORE.norm>
-2.16523

>  <RMSD>
0.696

$$$$
1q8n_lig
 OpenBabel11021811413D
libRbt.so/2013.1/901 2013/11/27
 25 27  0  0  0  0  0  0  0  0999 V2000
    0.6417    0.8492   -1.6672 C   0  0  0  0  0  0  0  0  0  0  0  0
    0.5675    1.9686   -2.8534 C   0  0  0  0  0  0  0  0  0  0  0  0
    2.6197   -4.5886   -3.0597 N   0  0  0  0  0  0  0  0  0  0  0  0
    1.2192    3.1550   -2.8034 C   0  0  0  0  0  0  0  0  0  0  0  0
   -1.1426    2.2904    3.8693 N   0  0  0  0  0  0  0  0  0  0  0  0
    1.1205    4.1462   -3.8996 C   0  0  0  0  0  0  0  0  0  0  0  0
    0.3638    3.8718   -4.9868 C   0  0  0  0  0  0  0  0  0  0  0  0
   -0.3340    2.6096   -5.0635 C   0  0  0  0  0  0  0  0  0  0  0  0
   -0.2386    1.7250   -4.0678 C   0  0  0  0  0  0  0  0  0  0  0  0
    1.1829   -0.6426   -2.0437 C   0  0  0  0  0  0  0  0  0  0  0  0
    0.9587   -1.6942   -1.2288 C   0  0  0  0  0  0  0  0  0  0  0  0
    1.4453   -3.0631   -1.5565 C   0  0  0  0  0  0  0  0  0  0  0  0
    2.1360   -3.2868   -2.7063 C   0  0  0  0  0  0  0  0  0  0  0  0
    2.3870   -2.1469   -3.6084 C   0  0  0  0  0  0  0  0  0  0  0  0
    1.9435   -0.9210   -3.2972 C   0  0  0  0  0  0  0  0  0  0  0  0
    0.1832    1.1947   -0.1118 C   0  0  0  0  0  0  0  0  0  0  0  0
   -0.5201    2.4893    0.1900 C   0  0  0  0  0  0  0  0  0  0  0  0
   -0.9239    2.8235    1.4187 C   0  0  0  0  0  0  0  0  0  0  0  0
   -0.6955    1.9264    2.5574 C   0  0  0  0  0  0  0  0  0  0  0  0
   -0.0629    0.7542    2.3422 C   0  0  0  0  0  0  0  0  0  0  0  0
    0.3942    0.3671    0.9652 C   0  0  0  0  0  0  0  0  0  0  0  0
    3.6398   -4.7830   -4.0447 C   0  0  0  0  0  0  0  0  0  0  0  0
    2.0845   -5.7518   -2.4227 C   0  0  0  0  0  0  0  0  0  0  0  0
   -1.9135    3.4841    4.0674 C   0  0  0  0  0  0  0  0  0  0  0  0
   -0.8383    1.4704    5.0201 C   0  0  0  0  0  0  0  0  0  0  0  0
  1  2  1  0  0  0  0
  1 10  1  0  0  0  0
  1 16  1  0  0  0  0
  2  4  2  0  0  0  0
  2  9  1  0  0  0  0
  4  6  1  0  0  0  0
  6  7  2  0  0  0  0
  7  8  1  0  0  0  0
  8  9  2  0  0  0  0
 10 11  2  0  0  0  0
 10 15  1  0  0  0  0
 11 12  1  0  0  0  0
 12 13  2  0  0  0  0
 13  3  1  0  0  0  0
 13 14  1  0  0  0  0
 14 15  2  0  0  0  0
 16 17  2  0  0  0  0
 16 21  1  0  0  0  0
 17 18  1  0  0  0  0
 18 19  2  0  0  0  0
 19  5  1  0  0  0  0
 19 20  1  0  0  0  0
 20 21  2  0  0  0  0
 22  3  1  0  0  0  0
 23  3  1  0  0  0  0
 24  5  1  0  0  0  0
 25  5  1  0  0  0  0
M  END
>  <CHROM.1>
-121.92812697,-162.96201195,9.81195006,-162.35757737,5.06779241,0.65115525
0.28046840,-1.10796010,0.14649393,1.20027790,-0.92279352

>  <Name>
1q8n_lig

>  <RI>
0

>  <Rbt.Current_Directory>
/home/itssahil/PROJECTS/Mol_Feturizer/New_Systems/rnas/1q8n

>  <Rbt.Executable>
rbdock ($Id: //depot/dev/client3/rdock/2013.1/src/exe/rbdock.cxx#4 $)

>  <Rbt.Library>
libRbt.so (2013.1, Build901 2013/11/27)

>  <Rbt.Parameter_File>
/export/apps/rDock/src/rDock_2013.1_src/data/scripts/dock_solv.prm

>  <Rbt.Receptor>
prm/pocket_docking_8.prm

>  <SCORE>
-53.7929

>  <SCORE.INTER>
-54.2274

>  <SCORE.INTER.CONST>
1

>  <SCORE.INTER.POLAR>
0

>  <SCORE.INTER.ROT>
5

>  <SCORE.INTER.SOLV>
10.1454

>  <SCORE.INTER.VDW>
-46.4667

>  <SCORE.INTER.norm>
-2.1691

>  <SCORE.INTRA>
0.434484

>  <SCORE.INTRA.DIHEDRAL>
1.27324

>  <SCORE.INTRA.DIHEDRAL.0>
2.1627

>  <SCORE.INTRA.POLAR>
0

>  <SCORE.INTRA.POLAR.0>
0

>  <SCORE.INTRA.REPUL>
0

>  <SCORE.INTRA.REPUL.0>
0

>  <SCORE.INTRA.SOLV>
0.0167841

>  <SCORE.INTRA.SOLV.lig_0>
-5.95779

>  <SCORE.INTRA.VDW>
-0.210529

>  <SCORE.INTRA.VDW.0>
3.81702

>  <SCORE.INTRA.norm>
0.0173794

>  <SCORE.RESTR>
0

>  <SCORE.RESTR.CAVITY>
0

>  <SCORE.RESTR.norm>
0

>  <SCORE.SYSTEM>
0

>  <SCORE.SYSTEM.CONST>
0

>  <SCORE.SYSTEM.DIHEDRAL>
0

>  <SCORE.SYSTEM.SOLV>
0

>  <SCORE.SYSTEM.norm>
0

>  <SCORE.heavy>
25

>  <SCORE.norm>
-2.15172

>  <RMSD>
0.696

$$$$
1q8n_lig
 OpenBabel11021811403D
libRbt.so/2013.1/901 2013/11/27
 25 27  0  0  0  0  0  0  0  0999 V2000
    0.6311    0.8601   -1.6219 C   0  0  0  0  0  0  0  0  0  0  0  0
    0.5797    1.9802   -2.8086 C   0  0  0  0  0  0  0  0  0  0  0  0
    2.5590   -4.6094   -2.9598 N   0  0  0  0  0  0  0  0  0  0  0  0
    1.1889    3.1871   -2.7242 C   0  0  0  0  0  0  0  0  0  0  0  0
   -1.1932    2.3161    3.8975 N   0  0  0  0  0  0  0  0  0  0  0  0
    1.1128    4.1781   -3.8223 C   0  0  0  0  0  0  0  0  0  0  0  0
    0.4207    3.8827   -4.9465 C   0  0  0  0  0  0  0  0  0  0  0  0
   -0.2309    2.5988   -5.0600 C   0  0  0  0  0  0  0  0  0  0  0  0
   -0.1565    1.7145   -4.0622 C   0  0  0  0  0  0  0  0  0  0  0  0
    1.1597   -0.6374   -1.9938 C   0  0  0  0  0  0  0  0  0  0  0  0
    1.7166   -0.9047   -3.1933 C   0  0  0  0  0  0  0  0  0  0  0  0
    2.2046   -2.2658   -3.5500 C   0  0  0  0  0  0  0  0  0  0  0  0
    2.1000   -3.2860   -2.6569 C   0  0  0  0  0  0  0  0  0  0  0  0
    1.4953   -3.0084   -1.3404 C   0  0  0  0  0  0  0  0  0  0  0  0
    1.0595   -1.7779   -1.0364 C   0  0  0  0  0  0  0  0  0  0  0  0
    0.1622    1.2104   -0.0708 C   0  0  0  0  0  0  0  0  0  0  0  0
   -0.5603    2.4970    0.2191 C   0  0  0  0  0  0  0  0  0  0  0  0
   -0.9732    2.8344    1.4439 C   0  0  0  0  0  0  0  0  0  0  0  0
   -0.7363    1.9489    2.5900 C   0  0  0  0  0  0  0  0  0  0  0  0
   -0.0864    0.7843    2.3856 C   0  0  0  0  0  0  0  0  0  0  0  0
    0.3810    0.3937    1.0130 C   0  0  0  0  0  0  0  0  0  0  0  0
    3.5443   -4.8645   -3.9661 C   0  0  0  0  0  0  0  0  0  0  0  0
    2.0336   -5.7330   -2.2481 C   0  0  0  0  0  0  0  0  0  0  0  0
   -0.8967    1.4855    5.0292 C   0  0  0  0  0  0  0  0  0  0  0  0
   -1.9540    3.5260    4.1141 C   0  0  0  0  0  0  0  0  0  0  0  0
  1  2  1  0  0  0  0
  1 10  1  0  0  0  0
  1 16  1  0  0  0  0
  2  4  2  0  0  0  0
  2  9  1  0  0  0  0
  4  6  1  0  0  0  0
  6  7  2  0  0  0  0
  7  8  1  0  0  0  0
  8  9  2  0  0  0  0
 10 11  2  0  0  0  0
 10 15  1  0  0  0  0
 11 12  1  0  0  0  0
 12 13  2  0  0  0  0
 13  3  1  0  0  0  0
 13 14  1  0  0  0  0
 14 15  2  0  0  0  0
 16 17  2  0  0  0  0
 16 21  1  0  0  0  0
 17 18  1  0  0  0  0
 18 19  2  0  0  0  0
 19  5  1  0  0  0  0
 19 20  1  0  0  0  0
 20 21  2  0  0  0  0
 22  3  1  0  0  0  0
 23  3  1  0  0  0  0
 24  5  1  0  0  0  0
 25  5  1  0  0  0  0
M  END
>  <CHROM.1>
-125.34393648,9.16963978,11.33157137,22.37805450,-176.54898065,0.62380234
0.28276612,-1.04244921,0.11420131,1.20416405,-0.90057966

>  <Name>
1q8n_lig

>  <RI>
0

>  <Rbt.Current_Directory>
/home/itssahil/PROJECTS/Mol_Feturizer/New_Systems/rnas/1q8n

>  <Rbt.Executable>
rbdock ($Id: //depot/dev/client3/rdock/2013.1/src/exe/rbdock.cxx#4 $)

>  <Rbt.Library>
libRbt.so (2013.1, Build901 2013/11/27)

>  <Rbt.Parameter_File>
/export/apps/rDock/src/rDock_2013.1_src/data/scripts/dock_solv.prm

>  <Rbt.Receptor>
prm/blind_docking_100.prm

>  <SCORE>
-54.038

>  <SCORE.INTER>
-54.6762

>  <SCORE.INTER.CONST>
1

>  <SCORE.INTER.POLAR>
0

>  <SCORE.INTER.ROT>
5

>  <SCORE.INTER.SOLV>
10.1626

>  <SCORE.INTER.VDW>
-46.7717

>  <SCORE.INTER.norm>
-2.18705

>  <SCORE.INTRA>
0.638163

>  <SCORE.INTRA.DIHEDRAL>
1.89827

>  <SCORE.INTRA.DIHEDRAL.0>
2.1627

>  <SCORE.INTRA.POLAR>
0

>  <SCORE.INTRA.POLAR.0>
0

>  <SCORE.INTRA.REPUL>
0

>  <SCORE.INTRA.REPUL.0>
0

>  <SCORE.INTRA.SOLV>
0.026315

>  <SCORE.INTRA.SOLV.lig_0>
-5.95779

>  <SCORE.INTRA.VDW>
-0.324128

>  <SCORE.INTRA.VDW.0>
3.81702

>  <SCORE.INTRA.norm>
0.0255265

>  <SCORE.RESTR>
0

>  <SCORE.RESTR.CAVITY>
0

>  <SCORE.RESTR.norm>
0

>  <SCORE.SYSTEM>
0

>  <SCORE.SYSTEM.CONST>
0

>  <SCORE.SYSTEM.DIHEDRAL>
0

>  <SCORE.SYSTEM.SOLV>
0

>  <SCORE.SYSTEM.norm>
0

>  <SCORE.heavy>
25

>  <SCORE.norm>
-2.16152

>  <RMSD>
0.697

$$$$
1q8n_lig
 OpenBabel11021811403D
libRbt.so/2013.1/901 2013/11/27
 25 27  0  0  0  0  0  0  0  0999 V2000
    0.6008    0.8449   -1.6212 C   0  0  0  0  0  0  0  0  0  0  0  0
    0.5131    1.9559   -2.8143 C   0  0  0  0  0  0  0  0  0  0  0  0
    2.6134   -4.5870   -2.9872 N   0  0  0  0  0  0  0  0  0  0  0  0
   -0.1428    1.7493   -3.9814 C   0  0  0  0  0  0  0  0  0  0  0  0
   -1.1796    2.3020    3.9123 N   0  0  0  0  0  0  0  0  0  0  0  0
   -0.1934    2.7825   -5.0415 C   0  0  0  0  0  0  0  0  0  0  0  0
    0.4265    3.9698   -4.8520 C   0  0  0  0  0  0  0  0  0  0  0  0
    1.1260    4.2134   -3.6121 C   0  0  0  0  0  0  0  0  0  0  0  0
    1.1660    3.2732   -2.6647 C   0  0  0  0  0  0  0  0  0  0  0  0
    1.1516   -0.6452   -1.9904 C   0  0  0  0  0  0  0  0  0  0  0  0
    0.9537   -1.6897   -1.1596 C   0  0  0  0  0  0  0  0  0  0  0  0
    1.4495   -3.0569   -1.4804 C   0  0  0  0  0  0  0  0  0  0  0  0
    2.1218   -3.2864   -2.6399 C   0  0  0  0  0  0  0  0  0  0  0  0
    2.3438   -2.1545   -3.5595 C   0  0  0  0  0  0  0  0  0  0  0  0
    1.8924   -0.9299   -3.2543 C   0  0  0  0  0  0  0  0  0  0  0  0
    0.1463    1.1970   -0.0662 C   0  0  0  0  0  0  0  0  0  0  0  0
   -0.6160    2.4610    0.2216 C   0  0  0  0  0  0  0  0  0  0  0  0
   -1.0197    2.7984    1.4495 C   0  0  0  0  0  0  0  0  0  0  0  0
   -0.7323    1.9354    2.6012 C   0  0  0  0  0  0  0  0  0  0  0  0
   -0.0455    0.7918    2.3987 C   0  0  0  0  0  0  0  0  0  0  0  0
    0.4120    0.4015    1.0228 C   0  0  0  0  0  0  0  0  0  0  0  0
    3.6259   -4.7808   -3.9800 C   0  0  0  0  0  0  0  0  0  0  0  0
    2.0943   -5.7493   -2.3355 C   0  0  0  0  0  0  0  0  0  0  0  0
   -1.9525    3.4948    4.1077 C   0  0  0  0  0  0  0  0  0  0  0  0
   -0.8734    1.4854    5.0651 C   0  0  0  0  0  0  0  0  0  0  0  0
  1  2  1  0  0  0  0
  1 10  1  0  0  0  0
  1 16  1  0  0  0  0
  2  4  2  0  0  0  0
  2  9  1  0  0  0  0
  4  6  1  0  0  0  0
  6  7  2  0  0  0  0
  7  8  1  0  0  0  0
  8  9  2  0  0  0  0
 10 11  2  0  0  0  0
 10 15  1  0  0  0  0
 11 12  1  0  0  0  0
 12 13  2  0  0  0  0
 13  3  1  0  0  0  0
 13 14  1  0  0  0  0
 14 15  2  0  0  0  0
 16 17  2  0  0  0  0
 16 21  1  0  0  0  0
 17 18  1  0  0  0  0
 18 19  2  0  0  0  0
 19  5  1  0  0  0  0
 19 20  1  0  0  0  0
 20 21  2  0  0  0  0
 22  3  1  0  0  0  0
 23  3  1  0  0  0  0
 24  5  1  0  0  0  0
 25  5  1  0  0  0  0
M  END
>  <CHROM.1>
53.89111874,-163.83062457,12.36030492,-161.80614739,2.09732577,0.63784554
0.30154804,-1.03878096,0.10170783,1.19877712,-0.89024090

>  <Name>
1q8n_lig

>  <RI>
0

>  <Rbt.Current_Directory>
/home/itssahil/PROJECTS/Mol_Feturizer/New_Systems/rnas/1q8n

>  <Rbt.Executable>
rbdock ($Id: //depot/dev/client3/rdock/2013.1/src/exe/rbdock.cxx#4 $)

>  <Rbt.Library>
libRbt.so (2013.1, Build901 2013/11/27)

>  <Rbt.Parameter_File>
/export/apps/rDock/src/rDock_2013.1_src/data/scripts/dock_solv.prm

>  <Rbt.Receptor>
prm/blind_docking_20.prm

>  <SCORE>
-53.1658

>  <SCORE.INTER>
-53.5917

>  <SCORE.INTER.CONST>
1

>  <SCORE.INTER.POLAR>
0

>  <SCORE.INTER.ROT>
5

>  <SCORE.INTER.SOLV>
10.2706

>  <SCORE.INTER.VDW>
-46.0846

>  <SCORE.INTER.norm>
-2.14367

>  <SCORE.INTRA>
0.42582

>  <SCORE.INTRA.DIHEDRAL>
1.26263

>  <SCORE.INTRA.DIHEDRAL.0>
2.1627

>  <SCORE.INTRA.POLAR>
0

>  <SCORE.INTRA.POLAR.0>
0

>  <SCORE.INTRA.REPUL>
0

>  <SCORE.INTRA.REPUL.0>
0

>  <SCORE.INTRA.SOLV>
0.0219453

>  <SCORE.INTRA.SOLV.lig_0>
-5.95779

>  <SCORE.INTRA.VDW>
-0.216465

>  <SCORE.INTRA.VDW.0>
3.81702

>  <SCORE.INTRA.norm>
0.0170328

>  <SCORE.RESTR>
0

>  <SCORE.RESTR.CAVITY>
0

>  <SCORE.RESTR.norm>
0

>  <SCORE.SYSTEM>
0

>  <SCORE.SYSTEM.CONST>
0

>  <SCORE.SYSTEM.DIHEDRAL>
0

>  <SCORE.SYSTEM.SOLV>
0

>  <SCORE.SYSTEM.norm>
0

>  <SCORE.heavy>
25

>  <SCORE.norm>
-2.12663

>  <RMSD>
0.697

$$$$
1q8n_lig
 OpenBabel11021811403D
libRbt.so/2013.1/901 2013/11/27
 25 27  0  0  0  0  0  0  0  0999 V2000
    0.6153    0.8566   -1.5873 C   0  0  0  0  0  0  0  0  0  0  0  0
    0.5934    2.0130   -2.7396 C   0  0  0  0  0  0  0  0  0  0  0  0
   -1.1817    2.3223    3.8940 N   0  0  0  0  0  0  0  0  0  0  0  0
    1.2166    3.2088   -2.6105 C   0  0  0  0  0  0  0  0  0  0  0  0
    2.5570   -4.6439   -2.9611 N   0  0  0  0  0  0  0  0  0  0  0  0
    1.1672    4.2337   -3.6786 C   0  0  0  0  0  0  0  0  0  0  0  0
    0.4862    3.9818   -4.8199 C   0  0  0  0  0  0  0  0  0  0  0  0
   -0.1800    2.7105   -4.9810 C   0  0  0  0  0  0  0  0  0  0  0  0
   -0.1296    1.7952   -4.0099 C   0  0  0  0  0  0  0  0  0  0  0  0
    0.1236    1.2532   -0.0836 C   0  0  0  0  0  0  0  0  0  0  0  0
    0.3443    0.4318    0.9638 C   0  0  0  0  0  0  0  0  0  0  0  0
   -0.0976    0.7775    2.3433 C   0  0  0  0  0  0  0  0  0  0  0  0
   -0.7421    1.9510    2.5815 C   0  0  0  0  0  0  0  0  0  0  0  0
   -0.9886    2.8604    1.4465 C   0  0  0  0  0  0  0  0  0  0  0  0
   -0.5857    2.5328    0.2108 C   0  0  0  0  0  0  0  0  0  0  0  0
    1.1214   -0.6885   -1.9115 C   0  0  0  0  0  0  0  0  0  0  0  0
    1.7652   -1.0021   -3.2339 C   0  0  0  0  0  0  0  0  0  0  0  0
    2.2032   -2.2229   -3.5536 C   0  0  0  0  0  0  0  0  0  0  0  0
    2.0739   -3.3409   -2.6117 C   0  0  0  0  0  0  0  0  0  0  0  0
    1.4975   -3.1148   -1.4128 C   0  0  0  0  0  0  0  0  0  0  0  0
    1.0029   -1.7464   -1.0418 C   0  0  0  0  0  0  0  0  0  0  0  0
   -0.9040    1.5218    5.0475 C   0  0  0  0  0  0  0  0  0  0  0  0
   -1.9243    3.5289    4.0889 C   0  0  0  0  0  0  0  0  0  0  0  0
    3.5965   -4.7939   -3.9385 C   0  0  0  0  0  0  0  0  0  0  0  0
    2.0206   -5.8342   -2.3406 C   0  0  0  0  0  0  0  0  0  0  0  0
  1  2  1  0  0  0  0
  1 10  1  0  0  0  0
  1 16  1  0  0  0  0
  2  4  2  0  0  0  0
  2  9  1  0  0  0  0
  4  6  1  0  0  0  0
  6  7  2  0  0  0  0
  7  8  1  0  0  0  0
  8  9  2  0  0  0  0
 10 11  2  0  0  0  0
 10 15  1  0  0  0  0
 11 12  1  0  0  0  0
 12 13  2  0  0  0  0
 13  3  1  0  0  0  0
 13 14  1  0  0  0  0
 14 15  2  0  0  0  0
 16 17  2  0  0  0  0
 16 21  1  0  0  0  0
 17 18  1  0  0  0  0
 18 19  2  0  0  0  0
 19  5  1  0  0  0  0
 19 20  1  0  0  0  0
 20 21  2  0  0  0  0
 22  3  1  0  0  0  0
 23  3  1  0  0  0  0
 24  5  1  0  0  0  0
 25  5  1  0  0  0  0
M  END
>  <CHROM.1>
54.57115554,-167.64378876,9.07263506,3.69452338,24.41362964,0.62803950,0.29388531
-1.02652544,3.08757065,-1.20636921,2.28105756

>  <Name>
1q8n_lig

>  <RI>
0

>  <Rbt.Current_Directory>
/home/itssahil/PROJECTS/Mol_Feturizer/New_Systems/rnas/1q8n

>  <Rbt.Executable>
rbdock ($Id: //depot/dev/client3/rdock/2013.1/src/exe/rbdock.cxx#4 $)

>  <Rbt.Library>
libRbt.so (2013.1, Build901 2013/11/27)

>  <Rbt.Parameter_File>
/export/apps/rDock/src/rDock_2013.1_src/data/scripts/dock_solv.prm

>  <Rbt.Receptor>
prm/blind_docking_80.prm

>  <SCORE>
-52.9135

>  <SCORE.INTER>
-53.5465

>  <SCORE.INTER.CONST>
1

>  <SCORE.INTER.POLAR>
0

>  <SCORE.INTER.ROT>
5

>  <SCORE.INTER.SOLV>
10.2702

>  <SCORE.INTER.VDW>
-46.0544

>  <SCORE.INTER.norm>
-2.14186

>  <SCORE.INTRA>
0.633006

>  <SCORE.INTRA.DIHEDRAL>
2.2357

>  <SCORE.INTRA.DIHEDRAL.0>
2.1627

>  <SCORE.INTRA.POLAR>
0

>  <SCORE.INTRA.POLAR.0>
0

>  <SCORE.INTRA.REPUL>
0

>  <SCORE.INTRA.REPUL.0>
0

>  <SCORE.INTRA.SOLV>
0.024946

>  <SCORE.INTRA.SOLV.lig_0>
-5.95779

>  <SCORE.INTRA.VDW>
-0.497318

>  <SCORE.INTRA.VDW.0>
3.81702

>  <SCORE.INTRA.norm>
0.0253203

>  <SCORE.RESTR>
0

>  <SCORE.RESTR.CAVITY>
0

>  <SCORE.RESTR.norm>
0

>  <SCORE.SYSTEM>
0

>  <SCORE.SYSTEM.CONST>
0

>  <SCORE.SYSTEM.DIHEDRAL>
0

>  <SCORE.SYSTEM.SOLV>
0

>  <SCORE.SYSTEM.norm>
0

>  <SCORE.heavy>
25

>  <SCORE.norm>
-2.11654

>  <RMSD>
0.698

$$$$
1q8n_lig
 OpenBabel11021811413D
libRbt.so/2013.1/901 2013/11/27
 25 27  0  0  0  0  0  0  0  0999 V2000
    0.6361    0.8495   -1.6368 C   0  0  0  0  0  0  0  0  0  0  0  0
    0.5717    1.9680   -2.8244 C   0  0  0  0  0  0  0  0  0  0  0  0
    2.5859   -4.6110   -2.9795 N   0  0  0  0  0  0  0  0  0  0  0  0
    1.2418    3.1443   -2.7805 C   0  0  0  0  0  0  0  0  0  0  0  0
   -1.1656    2.3009    3.8913 N   0  0  0  0  0  0  0  0  0  0  0  0
    1.1515    4.1352   -3.8777 C   0  0  0  0  0  0  0  0  0  0  0  0
    0.3839    3.8707   -4.9597 C   0  0  0  0  0  0  0  0  0  0  0  0
   -0.3338    2.6193   -5.0299 C   0  0  0  0  0  0  0  0  0  0  0  0
   -0.2457    1.7349   -4.0333 C   0  0  0  0  0  0  0  0  0  0  0  0
    1.1708   -0.6455   -2.0100 C   0  0  0  0  0  0  0  0  0  0  0  0
    1.7443   -0.9055   -3.2032 C   0  0  0  0  0  0  0  0  0  0  0  0
    2.2380   -2.2642   -3.5610 C   0  0  0  0  0  0  0  0  0  0  0  0
    2.1219   -3.2897   -2.6754 C   0  0  0  0  0  0  0  0  0  0  0  0
    1.4989   -3.0201   -1.3657 C   0  0  0  0  0  0  0  0  0  0  0  0
    1.0582   -1.7915   -1.0607 C   0  0  0  0  0  0  0  0  0  0  0  0
    0.1743    1.1990   -0.0833 C   0  0  0  0  0  0  0  0  0  0  0  0
   -0.5626    2.4773    0.2077 C   0  0  0  0  0  0  0  0  0  0  0  0
   -0.9707    2.8135    1.4344 C   0  0  0  0  0  0  0  0  0  0  0  0
   -0.7138    1.9351    2.5816 C   0  0  0  0  0  0  0  0  0  0  0  0
   -0.0505    0.7782    2.3762 C   0  0  0  0  0  0  0  0  0  0  0  0
    0.4117    0.3890    1.0015 C   0  0  0  0  0  0  0  0  0  0  0  0
    3.5865   -4.8595   -3.9722 C   0  0  0  0  0  0  0  0  0  0  0  0
    2.0500   -5.7392   -2.2830 C   0  0  0  0  0  0  0  0  0  0  0  0
   -0.8706    1.4655    5.0198 C   0  0  0  0  0  0  0  0  0  0  0  0
   -1.9198    3.5140    4.1132 C   0  0  0  0  0  0  0  0  0  0  0  0
  1  2  1  0  0  0  0
  1 10  1  0  0  0  0
  1 16  1  0  0  0  0
  2  4  2  0  0  0  0
  2  9  1  0  0  0  0
  4  6  1  0  0  0  0
  6  7  2  0  0  0  0
  7  8  1  0  0  0  0
  8  9  2  0  0  0  0
 10 11  2  0  0  0  0
 10 15  1  0  0  0  0
 11 12  1  0  0  0  0
 12 13  2  0  0  0  0
 13  3  1  0  0  0  0
 13 14  1  0  0  0  0
 14 15  2  0  0  0  0
 16 17  2  0  0  0  0
 16 21  1  0  0  0  0
 17 18  1  0  0  0  0
 18 19  2  0  0  0  0
 19  5  1  0  0  0  0
 19 20  1  0  0  0  0
 20 21  2  0  0  0  0
 22  3  1  0  0  0  0
 23  3  1  0  0  0  0
 24  5  1  0  0  0  0
 25  5  1  0  0  0  0
M  END
>  <CHROM.1>
-121.12849516,10.39099300,11.78471496,22.47272148,-177.67579717,0.63360480
0.27309972,-1.05608859,0.13374164,1.20254829,-0.92062389

>  <Name>
1q8n_lig

>  <RI>
0

>  <Rbt.Current_Directory>
/home/itssahil/PROJECTS/Mol_Feturizer/New_Systems/rnas/1q8n

>  <Rbt.Executable>
rbdock ($Id: //depot/dev/client3/rdock/2013.1/src/exe/rbdock.cxx#4 $)

>  <Rbt.Library>
libRbt.so (2013.1, Build901 2013/11/27)

>  <Rbt.Parameter_File>
/export/apps/rDock/src/rDock_2013.1_src/data/scripts/dock_solv.prm

>  <Rbt.Receptor>
prm/pocket_docking_7.prm

>  <SCORE>
-54.026

>  <SCORE.INTER>
-54.6171

>  <SCORE.INTER.CONST>
1

>  <SCORE.INTER.POLAR>
0

>  <SCORE.INTER.ROT>
5

>  <SCORE.INTER.SOLV>
10.147

>  <SCORE.INTER.VDW>
-46.7271

>  <SCORE.INTER.norm>
-2.18468

>  <SCORE.INTRA>
0.591037

>  <SCORE.INTRA.DIHEDRAL>
1.88784

>  <SCORE.INTRA.DIHEDRAL.0>
2.1627

>  <SCORE.INTRA.POLAR>
0

>  <SCORE.INTRA.POLAR.0>
0

>  <SCORE.INTRA.REPUL>
0

>  <SCORE.INTRA.REPUL.0>
0

>  <SCORE.INTRA.SOLV>
0.0193

>  <SCORE.INTRA.SOLV.lig_0>
-5.95779

>  <SCORE.INTRA.VDW>
-0.362531

>  <SCORE.INTRA.VDW.0>
3.81702

>  <SCORE.INTRA.norm>
0.0236415

>  <SCORE.RESTR>
0

>  <SCORE.RESTR.CAVITY>
0

>  <SCORE.RESTR.norm>
0

>  <SCORE.SYSTEM>
0

>  <SCORE.SYSTEM.CONST>
0

>  <SCORE.SYSTEM.DIHEDRAL>
0

>  <SCORE.SYSTEM.SOLV>
0

>  <SCORE.SYSTEM.norm>
0

>  <SCORE.heavy>
25

>  <SCORE.norm>
-2.16104

>  <RMSD>
0.699

$$$$
1q8n_lig
 OpenBabel11021811403D
libRbt.so/2013.1/901 2013/11/27
 25 27  0  0  0  0  0  0  0  0999 V2000
    0.5220    0.9285   -1.6374 C   0  0  0  0  0  0  0  0  0  0  0  0
    0.5090    2.0107   -2.8597 C   0  0  0  0  0  0  0  0  0  0  0  0
    2.4507   -4.5909   -2.7501 N   0  0  0  0  0  0  0  0  0  0  0  0
    1.1947    3.1785   -2.8315 C   0  0  0  0  0  0  0  0  0  0  0  0
   -1.1638    2.2068    3.9695 N   0  0  0  0  0  0  0  0  0  0  0  0
    1.1513    4.1363   -3.9605 C   0  0  0  0  0  0  0  0  0  0  0  0
    0.4120    3.8493   -5.0564 C   0  0  0  0  0  0  0  0  0  0  0  0
   -0.3216    2.6064   -5.1100 C   0  0  0  0  0  0  0  0  0  0  0  0
   -0.2759    1.7519   -4.0849 C   0  0  0  0  0  0  0  0  0  0  0  0
    1.0510   -0.5829   -1.9476 C   0  0  0  0  0  0  0  0  0  0  0  0
    1.6408   -0.8903   -3.1214 C   0  0  0  0  0  0  0  0  0  0  0  0
    2.1297   -2.2646   -3.4218 C   0  0  0  0  0  0  0  0  0  0  0  0
    1.9921   -3.2562   -2.5015 C   0  0  0  0  0  0  0  0  0  0  0  0
    1.3512   -2.9346   -1.2124 C   0  0  0  0  0  0  0  0  0  0  0  0
    0.9151   -1.6927   -0.9591 C   0  0  0  0  0  0  0  0  0  0  0  0
    0.0144    1.3302   -0.1111 C   0  0  0  0  0  0  0  0  0  0  0  0
    0.3960    0.4622    1.0562 C   0  0  0  0  0  0  0  0  0  0  0  0
    0.0281    0.7349    2.3110 C   0  0  0  0  0  0  0  0  0  0  0  0
   -0.7839    1.9182    2.6183 C   0  0  0  0  0  0  0  0  0  0  0  0
   -1.1588    2.7275    1.6059 C   0  0  0  0  0  0  0  0  0  0  0  0
   -0.7498    2.4319    0.1916 C   0  0  0  0  0  0  0  0  0  0  0  0
    3.3719   -4.8987   -3.8014 C   0  0  0  0  0  0  0  0  0  0  0  0
    1.9904   -5.6726   -1.9357 C   0  0  0  0  0  0  0  0  0  0  0  0
   -0.7903    1.3194    5.0331 C   0  0  0  0  0  0  0  0  0  0  0  0
   -1.9222    3.3925    4.2986 C   0  0  0  0  0  0  0  0  0  0  0  0
  1  2  1  0  0  0  0
  1 10  1  0  0  0  0
  1 16  1  0  0  0  0
  2  4  2  0  0  0  0
  2  9  1  0  0  0  0
  4  6  1  0  0  0  0
  6  7  2  0  0  0  0
  7  8  1  0  0  0  0
  8  9  2  0  0  0  0
 10 11  2  0  0  0  0
 10 15  1  0  0  0  0
 11 12  1  0  0  0  0
 12 13  2  0  0  0  0
 13  3  1  0  0  0  0
 13 14  1  0  0  0  0
 14 15  2  0  0  0  0
 16 17  2  0  0  0  0
 16 21  1  0  0  0  0
 17 18  1  0  0  0  0
 18 19  2  0  0  0  0
 19  5  1  0  0  0  0
 19 20  1  0  0  0  0
 20 21  2  0  0  0  0
 22  3  1  0  0  0  0
 23  3  1  0  0  0  0
 24  5  1  0  0  0  0
 25  5  1  0  0  0  0
M  END
>  <CHROM.1>
-120.88603264,9.33858656,-162.62837324,16.49659147,-1.97190768,0.56123741
0.27590360,-0.99263498,0.15818977,1.20652501,-0.92315458

>  <Name>
1q8n_lig

>  <RI>
0

>  <Rbt.Current_Directory>
/home/itssahil/PROJECTS/Mol_Feturizer/New_Systems/rnas/1q8n

>  <Rbt.Executable>
rbdock ($Id: //depot/dev/client3/rdock/2013.1/src/exe/rbdock.cxx#4 $)

>  <Rbt.Library>
libRbt.so (2013.1, Build901 2013/11/27)

>  <Rbt.Parameter_File>
/export/apps/rDock/src/rDock_2013.1_src/data/scripts/dock_solv.prm

>  <Rbt.Receptor>
prm/pocket_docking_3.prm

>  <SCORE>
-54.1199

>  <SCORE.INTER>
-54.6434

>  <SCORE.INTER.CONST>
1

>  <SCORE.INTER.POLAR>
0

>  <SCORE.INTER.ROT>
5

>  <SCORE.INTER.SOLV>
10.1168

>  <SCORE.INTER.VDW>
-46.7346

>  <SCORE.INTER.norm>
-2.18574

>  <SCORE.INTRA>
0.523527

>  <SCORE.INTRA.DIHEDRAL>
1.04608

>  <SCORE.INTRA.DIHEDRAL.0>
2.1627

>  <SCORE.INTRA.POLAR>
0

>  <SCORE.INTRA.POLAR.0>
0

>  <SCORE.INTRA.REPUL>
0

>  <SCORE.INTRA.REPUL.0>
0

>  <SCORE.INTRA.SOLV>
0.0254359

>  <SCORE.INTRA.SOLV.lig_0>
-5.95779

>  <SCORE.INTRA.VDW>
-0.0122288

>  <SCORE.INTRA.VDW.0>
3.81702

>  <SCORE.INTRA.norm>
0.0209411

>  <SCORE.RESTR>
0

>  <SCORE.RESTR.CAVITY>
0

>  <SCORE.RESTR.norm>
0

>  <SCORE.SYSTEM>
0

>  <SCORE.SYSTEM.CONST>
0

>  <SCORE.SYSTEM.DIHEDRAL>
0

>  <SCORE.SYSTEM.SOLV>
0

>  <SCORE.SYSTEM.norm>
0

>  <SCORE.heavy>
25

>  <SCORE.norm>
-2.1648

>  <RMSD>
0.700

$$$$
1q8n_lig
 OpenBabel11021811403D
libRbt.so/2013.1/901 2013/11/27
 25 27  0  0  0  0  0  0  0  0999 V2000
    0.6011    0.8620   -1.5713 C   0  0  0  0  0  0  0  0  0  0  0  0
    0.5795    2.0202   -2.7218 C   0  0  0  0  0  0  0  0  0  0  0  0
   -1.1987    2.3191    3.9114 N   0  0  0  0  0  0  0  0  0  0  0  0
    1.2113    3.2116   -2.5950 C   0  0  0  0  0  0  0  0  0  0  0  0
    2.5416   -4.6367   -2.9541 N   0  0  0  0  0  0  0  0  0  0  0  0
    1.1619    4.2384   -3.6614 C   0  0  0  0  0  0  0  0  0  0  0  0
    0.4721    3.9925   -4.7988 C   0  0  0  0  0  0  0  0  0  0  0  0
   -0.2033    2.7258   -4.9574 C   0  0  0  0  0  0  0  0  0  0  0  0
   -0.1529    1.8089   -3.9879 C   0  0  0  0  0  0  0  0  0  0  0  0
    0.1087    1.2562   -0.0672 C   0  0  0  0  0  0  0  0  0  0  0  0
    0.3614    0.4504    0.9851 C   0  0  0  0  0  0  0  0  0  0  0  0
   -0.0805    0.7943    2.3651 C   0  0  0  0  0  0  0  0  0  0  0  0
   -0.7578    1.9501    2.5987 C   0  0  0  0  0  0  0  0  0  0  0  0
   -1.0394    2.8424    1.4582 C   0  0  0  0  0  0  0  0  0  0  0  0
   -0.6361    2.5167    0.2222 C   0  0  0  0  0  0  0  0  0  0  0  0
    1.1074   -0.6826   -1.8977 C   0  0  0  0  0  0  0  0  0  0  0  0
    1.7395   -0.9970   -3.2255 C   0  0  0  0  0  0  0  0  0  0  0  0
    2.1771   -2.2174   -3.5473 C   0  0  0  0  0  0  0  0  0  0  0  0
    2.0590   -3.3341   -2.6023 C   0  0  0  0  0  0  0  0  0  0  0  0
    1.4934   -3.1072   -1.3985 C   0  0  0  0  0  0  0  0  0  0  0  0
    0.9993   -1.7392   -1.0252 C   0  0  0  0  0  0  0  0  0  0  0  0
   -0.9139    1.5214    5.0651 C   0  0  0  0  0  0  0  0  0  0  0  0
   -1.9499    3.5203    4.1063 C   0  0  0  0  0  0  0  0  0  0  0  0
    3.5700   -4.7863   -3.9432 C   0  0  0  0  0  0  0  0  0  0  0  0
    2.0158   -5.8268   -2.3244 C   0  0  0  0  0  0  0  0  0  0  0  0
  1  2  1  0  0  0  0
  1 10  1  0  0  0  0
  1 16  1  0  0  0  0
  2  4  2  0  0  0  0
  2  9  1  0  0  0  0
  4  6  1  0  0  0  0
  6  7  2  0  0  0  0
  7  8  1  0  0  0  0
  8  9  2  0  0  0  0
 10 11  2  0  0  0  0
 10 15  1  0  0  0  0
 11 12  1  0  0  0  0
 12 13  2  0  0  0  0
 13  3  1  0  0  0  0
 13 14  1  0  0  0  0
 14 15  2  0  0  0  0
 16 17  2  0  0  0  0
 16 21  1  0  0  0  0
 17 18  1  0  0  0  0
 18 19  2  0  0  0  0
 19  5  1  0  0  0  0
 19 20  1  0  0  0  0
 20 21  2  0  0  0  0
 22  3  1  0  0  0  0
 23  3  1  0  0  0  0
 24  5  1  0  0  0  0
 25  5  1  0  0  0  0
M  END
>  <CHROM.1>
55.10803088,-165.80679320,8.47471515,2.29632013,24.26847847,0.61260197,0.29824538
-1.01171346,3.08417647,-1.20585035,2.27928886

>  <Name>
1q8n_lig

>  <RI>
0

>  <Rbt.Current_Directory>
/home/itssahil/PROJECTS/Mol_Feturizer/New_Systems/rnas/1q8n

>  <Rbt.Executable>
rbdock ($Id: //depot/dev/client3/rdock/2013.1/src/exe/rbdock.cxx#4 $)

>  <Rbt.Library>
libRbt.so (2013.1, Build901 2013/11/27)

>  <Rbt.Parameter_File>
/export/apps/rDock/src/rDock_2013.1_src/data/scripts/dock_solv.prm

>  <Rbt.Receptor>
prm/blind_docking_100.prm

>  <SCORE>
-52.9458

>  <SCORE.INTER>
-53.5477

>  <SCORE.INTER.CONST>
1

>  <SCORE.INTER.POLAR>
0

>  <SCORE.INTER.ROT>
5

>  <SCORE.INTER.SOLV>
10.2952

>  <SCORE.INTER.VDW>
-46.0636

>  <SCORE.INTER.norm>
-2.14191

>  <SCORE.INTRA>
0.60193

>  <SCORE.INTRA.DIHEDRAL>
2.17883

>  <SCORE.INTRA.DIHEDRAL.0>
2.1627

>  <SCORE.INTRA.POLAR>
0

>  <SCORE.INTRA.POLAR.0>
0

>  <SCORE.INTRA.REPUL>
0

>  <SCORE.INTRA.REPUL.0>
0

>  <SCORE.INTRA.SOLV>
0.023453

>  <SCORE.INTRA.SOLV.lig_0>
-5.95779

>  <SCORE.INTRA.VDW>
-0.49921

>  <SCORE.INTRA.VDW.0>
3.81702

>  <SCORE.INTRA.norm>
0.0240772

>  <SCORE.RESTR>
0

>  <SCORE.RESTR.CAVITY>
0

>  <SCORE.RESTR.norm>
0

>  <SCORE.SYSTEM>
0

>  <SCORE.SYSTEM.CONST>
0

>  <SCORE.SYSTEM.DIHEDRAL>
0

>  <SCORE.SYSTEM.SOLV>
0

>  <SCORE.SYSTEM.norm>
0

>  <SCORE.heavy>
25

>  <SCORE.norm>
-2.11783

>  <RMSD>
0.701

$$$$
1q8n_lig
 OpenBabel11021811403D
libRbt.so/2013.1/901 2013/11/27
 25 27  0  0  0  0  0  0  0  0999 V2000
    0.6552    0.8506   -1.6590 C   0  0  0  0  0  0  0  0  0  0  0  0
    0.5977    1.9753   -2.8410 C   0  0  0  0  0  0  0  0  0  0  0  0
    2.6039   -4.5956   -3.0601 N   0  0  0  0  0  0  0  0  0  0  0  0
    1.1972    3.1867   -2.7499 C   0  0  0  0  0  0  0  0  0  0  0  0
   -1.1634    2.2787    3.8696 N   0  0  0  0  0  0  0  0  0  0  0  0
    1.1158    4.1817   -3.8441 C   0  0  0  0  0  0  0  0  0  0  0  0
    0.4288    3.8857   -4.9712 C   0  0  0  0  0  0  0  0  0  0  0  0
   -0.2123    2.5971   -5.0917 C   0  0  0  0  0  0  0  0  0  0  0  0
   -0.1332    1.7091   -4.0975 C   0  0  0  0  0  0  0  0  0  0  0  0
    1.1885   -0.6435   -2.0379 C   0  0  0  0  0  0  0  0  0  0  0  0
    0.9822   -1.6901   -1.2117 C   0  0  0  0  0  0  0  0  0  0  0  0
    1.4620   -3.0609   -1.5413 C   0  0  0  0  0  0  0  0  0  0  0  0
    2.1277   -3.2916   -2.7044 C   0  0  0  0  0  0  0  0  0  0  0  0
    2.3588   -2.1574   -3.6189 C   0  0  0  0  0  0  0  0  0  0  0  0
    1.9218   -0.9296   -3.3058 C   0  0  0  0  0  0  0  0  0  0  0  0
    0.1877    1.1929   -0.1056 C   0  0  0  0  0  0  0  0  0  0  0  0
   -0.5305    2.4801    0.1923 C   0  0  0  0  0  0  0  0  0  0  0  0
   -0.9420    2.8114    1.4192 C   0  0  0  0  0  0  0  0  0  0  0  0
   -0.7079    1.9180    2.5598 C   0  0  0  0  0  0  0  0  0  0  0  0
   -0.0620    0.7525    2.3481 C   0  0  0  0  0  0  0  0  0  0  0  0
    0.4039    0.3688    0.9731 C   0  0  0  0  0  0  0  0  0  0  0  0
    2.0744   -5.7886   -2.4729 C   0  0  0  0  0  0  0  0  0  0  0  0
    3.6423   -4.7412   -4.0327 C   0  0  0  0  0  0  0  0  0  0  0  0
   -1.9136    3.4851    4.0699 C   0  0  0  0  0  0  0  0  0  0  0  0
   -0.8883    1.4426    5.0163 C   0  0  0  0  0  0  0  0  0  0  0  0
  1  2  1  0  0  0  0
  1 10  1  0  0  0  0
  1 16  1  0  0  0  0
  2  4  2  0  0  0  0
  2  9  1  0  0  0  0
  4  6  1  0  0  0  0
  6  7  2  0  0  0  0
  7  8  1  0  0  0  0
  8  9  2  0  0  0  0
 10 11  2  0  0  0  0
 10 15  1  0  0  0  0
 11 12  1  0  0  0  0
 12 13  2  0  0  0  0
 13  3  1  0  0  0  0
 13 14  1  0  0  0  0
 14 15  2  0  0  0  0
 16 17  2  0  0  0  0
 16 21  1  0  0  0  0
 17 18  1  0  0  0  0
 18 19  2  0  0  0  0
 19  5  1  0  0  0  0
 19 20  1  0  0  0  0
 20 21  2  0  0  0  0
 22  3  1  0  0  0  0
 23  3  1  0  0  0  0
 24  5  1  0  0  0  0
 25  5  1  0  0  0  0
M  END
>  <CHROM.1>
-125.68837853,-164.77896571,10.90657957,20.25640920,3.19655753,0.65760899
0.27912560,-1.10460100,0.12169090,1.20119980,-0.89398825

>  <Name>
1q8n_lig

>  <RI>
0

>  <Rbt.Current_Directory>
/home/itssahil/PROJECTS/Mol_Feturizer/New_Systems/rnas/1q8n

>  <Rbt.Executable>
rbdock ($Id: //depot/dev/client3/rdock/2013.1/src/exe/rbdock.cxx#4 $)

>  <Rbt.Library>
libRbt.so (2013.1, Build901 2013/11/27)

>  <Rbt.Parameter_File>
/export/apps/rDock/src/rDock_2013.1_src/data/scripts/dock_solv.prm

>  <Rbt.Receptor>
prm/blind_docking_20.prm

>  <SCORE>
-53.7241

>  <SCORE.INTER>
-54.2311

>  <SCORE.INTER.CONST>
1

>  <SCORE.INTER.POLAR>
0

>  <SCORE.INTER.ROT>
5

>  <SCORE.INTER.SOLV>
10.1208

>  <SCORE.INTER.VDW>
-46.461

>  <SCORE.INTER.norm>
-2.16925

>  <SCORE.INTRA>
0.507064

>  <SCORE.INTRA.DIHEDRAL>
1.57183

>  <SCORE.INTRA.DIHEDRAL.0>
2.1627

>  <SCORE.INTRA.POLAR>
0

>  <SCORE.INTRA.POLAR.0>
0

>  <SCORE.INTRA.REPUL>
0

>  <SCORE.INTRA.REPUL.0>
0

>  <SCORE.INTRA.SOLV>
0.0231017

>  <SCORE.INTRA.SOLV.lig_0>
-5.95779

>  <SCORE.INTRA.VDW>
-0.2904

>  <SCORE.INTRA.VDW.0>
3.81702

>  <SCORE.INTRA.norm>
0.0202826

>  <SCORE.RESTR>
0

>  <SCORE.RESTR.CAVITY>
0

>  <SCORE.RESTR.norm>
0

>  <SCORE.SYSTEM>
0

>  <SCORE.SYSTEM.CONST>
0

>  <SCORE.SYSTEM.DIHEDRAL>
0

>  <SCORE.SYSTEM.SOLV>
0

>  <SCORE.SYSTEM.norm>
0

>  <SCORE.heavy>
25

>  <SCORE.norm>
-2.14896

>  <RMSD>
0.701

$$$$
1q8n_lig
 OpenBabel11021811403D
libRbt.so/2013.1/901 2013/11/27
 25 27  0  0  0  0  0  0  0  0999 V2000
    0.6283    0.8508   -1.6261 C   0  0  0  0  0  0  0  0  0  0  0  0
    0.5713    1.9780   -2.8059 C   0  0  0  0  0  0  0  0  0  0  0  0
    2.5766   -4.6027   -2.9989 N   0  0  0  0  0  0  0  0  0  0  0  0
    1.2551    3.1462   -2.7572 C   0  0  0  0  0  0  0  0  0  0  0  0
   -1.2101    2.2554    3.9021 N   0  0  0  0  0  0  0  0  0  0  0  0
    1.1712    4.1455   -3.8473 C   0  0  0  0  0  0  0  0  0  0  0  0
    0.3956    3.8972   -4.9275 C   0  0  0  0  0  0  0  0  0  0  0  0
   -0.3368    2.6546   -5.0027 C   0  0  0  0  0  0  0  0  0  0  0  0
   -0.2544    1.7625   -4.0125 C   0  0  0  0  0  0  0  0  0  0  0  0
    1.1626   -0.6422   -2.0075 C   0  0  0  0  0  0  0  0  0  0  0  0
    1.7500   -0.8924   -3.1961 C   0  0  0  0  0  0  0  0  0  0  0  0
    2.2437   -2.2491   -3.5612 C   0  0  0  0  0  0  0  0  0  0  0  0
    2.1132   -3.2829   -2.6874 C   0  0  0  0  0  0  0  0  0  0  0  0
    1.4749   -3.0241   -1.3829 C   0  0  0  0  0  0  0  0  0  0  0  0
    1.0345   -1.7972   -1.0711 C   0  0  0  0  0  0  0  0  0  0  0  0
    0.1594    1.1898   -0.0724 C   0  0  0  0  0  0  0  0  0  0  0  0
   -0.6453    2.4280    0.2122 C   0  0  0  0  0  0  0  0  0  0  0  0
   -1.0623    2.7534    1.4388 C   0  0  0  0  0  0  0  0  0  0  0  0
   -0.7484    1.9021    2.5923 C   0  0  0  0  0  0  0  0  0  0  0  0
   -0.0234    0.7818    2.3928 C   0  0  0  0  0  0  0  0  0  0  0  0
    0.4495    0.4051    1.0182 C   0  0  0  0  0  0  0  0  0  0  0  0
    2.0493   -5.7686   -2.3576 C   0  0  0  0  0  0  0  0  0  0  0  0
    3.5991   -4.7926   -3.9806 C   0  0  0  0  0  0  0  0  0  0  0  0
   -1.9479    3.4685    4.1082 C   0  0  0  0  0  0  0  0  0  0  0  0
   -0.9540    1.4050    5.0426 C   0  0  0  0  0  0  0  0  0  0  0  0
  1  2  1  0  0  0  0
  1 10  1  0  0  0  0
  1 16  1  0  0  0  0
  2  4  2  0  0  0  0
  2  9  1  0  0  0  0
  4  6  1  0  0  0  0
  6  7  2  0  0  0  0
  7  8  1  0  0  0  0
  8  9  2  0  0  0  0
 10 11  2  0  0  0  0
 10 15  1  0  0  0  0
 11 12  1  0  0  0  0
 12 13  2  0  0  0  0
 13  3  1  0  0  0  0
 13 14  1  0  0  0  0
 14 15  2  0  0  0  0
 16 17  2  0  0  0  0
 16 21  1  0  0  0  0
 17 18  1  0  0  0  0
 18 19  2  0  0  0  0
 19  5  1  0  0  0  0
 19 20  1  0  0  0  0
 20 21  2  0  0  0  0
 22  3  1  0  0  0  0
 23  3  1  0  0  0  0
 24  5  1  0  0  0  0
 25  5  1  0  0  0  0
M  END
>  <CHROM.1>
-120.33142072,10.85957563,15.27009734,-156.90608188,-2.03626966,0.61962265
0.26884892,-1.05175490,0.12230983,1.19807595,-0.90107679

>  <Name>
1q8n_lig

>  <RI>
0

>  <Rbt.Current_Directory>
/home/itssahil/PROJECTS/Mol_Feturizer/New_Systems/rnas/1q8n

>  <Rbt.Executable>
rbdock ($Id: //depot/dev/client3/rdock/2013.1/src/exe/rbdock.cxx#4 $)

>  <Rbt.Library>
libRbt.so (2013.1, Build901 2013/11/27)

>  <Rbt.Parameter_File>
/export/apps/rDock/src/rDock_2013.1_src/data/scripts/dock_solv.prm

>  <Rbt.Receptor>
prm/blind_docking_100.prm

>  <SCORE>
-53.8785

>  <SCORE.INTER>
-54.3957

>  <SCORE.INTER.CONST>
1

>  <SCORE.INTER.POLAR>
0

>  <SCORE.INTER.ROT>
5

>  <SCORE.INTER.SOLV>
10.0993

>  <SCORE.INTER.VDW>
-46.5636

>  <SCORE.INTER.norm>
-2.17583

>  <SCORE.INTRA>
0.517224

>  <SCORE.INTRA.DIHEDRAL>
1.98212

>  <SCORE.INTRA.DIHEDRAL.0>
2.1627

>  <SCORE.INTRA.POLAR>
0

>  <SCORE.INTRA.POLAR.0>
0

>  <SCORE.INTRA.REPUL>
0

>  <SCORE.INTRA.REPUL.0>
0

>  <SCORE.INTRA.SOLV>
0.0160418

>  <SCORE.INTRA.SOLV.lig_0>
-5.95779

>  <SCORE.INTRA.VDW>
-0.481858

>  <SCORE.INTRA.VDW.0>
3.81702

>  <SCORE.INTRA.norm>
0.020689

>  <SCORE.RESTR>
0

>  <SCORE.RESTR.CAVITY>
0

>  <SCORE.RESTR.norm>
0

>  <SCORE.SYSTEM>
0

>  <SCORE.SYSTEM.CONST>
0

>  <SCORE.SYSTEM.DIHEDRAL>
0

>  <SCORE.SYSTEM.SOLV>
0

>  <SCORE.SYSTEM.norm>
0

>  <SCORE.heavy>
25

>  <SCORE.norm>
-2.15514

>  <RMSD>
0.702

$$$$
1q8n_lig
 OpenBabel11021811403D
libRbt.so/2013.1/901 2013/11/27
 25 27  0  0  0  0  0  0  0  0999 V2000
    0.6091    0.8482   -1.5812 C   0  0  0  0  0  0  0  0  0  0  0  0
    0.5851    2.0022   -2.7358 C   0  0  0  0  0  0  0  0  0  0  0  0
   -1.1874    2.3230    3.8978 N   0  0  0  0  0  0  0  0  0  0  0  0
    1.2081    3.1984   -2.6101 C   0  0  0  0  0  0  0  0  0  0  0  0
    2.5560   -4.6528   -2.9453 N   0  0  0  0  0  0  0  0  0  0  0  0
    1.1569    4.2212   -3.6803 C   0  0  0  0  0  0  0  0  0  0  0  0
    0.4743    3.9666   -4.8202 C   0  0  0  0  0  0  0  0  0  0  0  0
   -0.1916    2.6947   -4.9776 C   0  0  0  0  0  0  0  0  0  0  0  0
   -0.1396    1.7815   -4.0047 C   0  0  0  0  0  0  0  0  0  0  0  0
    0.1175    1.2473   -0.0781 C   0  0  0  0  0  0  0  0  0  0  0  0
    0.3301    0.4235    0.9690 C   0  0  0  0  0  0  0  0  0  0  0  0
   -0.1118    0.7714    2.3480 C   0  0  0  0  0  0  0  0  0  0  0  0
   -0.7480    1.9494    2.5859 C   0  0  0  0  0  0  0  0  0  0  0  0
   -0.9857    2.8615    1.4512 C   0  0  0  0  0  0  0  0  0  0  0  0
   -0.5829    2.5319    0.2160 C   0  0  0  0  0  0  0  0  0  0  0  0
    1.1171   -0.6969   -1.9025 C   0  0  0  0  0  0  0  0  0  0  0  0
    1.7521   -1.0144   -3.2282 C   0  0  0  0  0  0  0  0  0  0  0  0
    2.1911   -2.2354   -3.5458 C   0  0  0  0  0  0  0  0  0  0  0  0
    2.0718   -3.3496   -2.5981 C   0  0  0  0  0  0  0  0  0  0  0  0
    1.5037   -3.1199   -1.3960 C   0  0  0  0  0  0  0  0  0  0  0  0
    1.0080   -1.7512   -1.0273 C   0  0  0  0  0  0  0  0  0  0  0  0
   -0.9107    1.5236    5.0524 C   0  0  0  0  0  0  0  0  0  0  0  0
   -1.9286    3.5306    4.0911 C   0  0  0  0  0  0  0  0  0  0  0  0
    2.0005   -5.8216   -2.3259 C   0  0  0  0  0  0  0  0  0  0  0  0
    3.6043   -4.8272   -3.9252 C   0  0  0  0  0  0  0  0  0  0  0  0
  1  2  1  0  0  0  0
  1 10  1  0  0  0  0
  1 16  1  0  0  0  0
  2  4  2  0  0  0  0
  2  9  1  0  0  0  0
  4  6  1  0  0  0  0
  6  7  2  0  0  0  0
  7  8  1  0  0  0  0
  8  9  2  0  0  0  0
 10 11  2  0  0  0  0
 10 15  1  0  0  0  0
 11 12  1  0  0  0  0
 12 13  2  0  0  0  0
 13  3  1  0  0  0  0
 13 14  1  0  0  0  0
 14 15  2  0  0  0  0
 16 17  2  0  0  0  0
 16 21  1  0  0  0  0
 17 18  1  0  0  0  0
 18 19  2  0  0  0  0
 19  5  1  0  0  0  0
 19 20  1  0  0  0  0
 20 21  2  0  0  0  0
 22  3  1  0  0  0  0
 23  3  1  0  0  0  0
 24  5  1  0  0  0  0
 25  5  1  0  0  0  0
M  END
>  <CHROM.1>
54.65181033,-168.18714225,8.64641511,4.08307001,-154.72335368,0.62196930
0.28654172,-1.01971754,3.08487975,-1.20614560,2.27682246

>  <Name>
1q8n_lig

>  <RI>
0

>  <Rbt.Current_Directory>
/home/itssahil/PROJECTS/Mol_Feturizer/New_Systems/rnas/1q8n

>  <Rbt.Executable>
rbdock ($Id: //depot/dev/client3/rdock/2013.1/src/exe/rbdock.cxx#4 $)

>  <Rbt.Library>
libRbt.so (2013.1, Build901 2013/11/27)

>  <Rbt.Parameter_File>
/export/apps/rDock/src/rDock_2013.1_src/data/scripts/dock_solv.prm

>  <Rbt.Receptor>
prm/pocket_docking_4.prm

>  <SCORE>
-53.052

>  <SCORE.INTER>
-53.7678

>  <SCORE.INTER.CONST>
1

>  <SCORE.INTER.POLAR>
0

>  <SCORE.INTER.ROT>
5

>  <SCORE.INTER.SOLV>
10.2594

>  <SCORE.INTER.VDW>
-46.1984

>  <SCORE.INTER.norm>
-2.15071

>  <SCORE.INTRA>
0.715861

>  <SCORE.INTRA.DIHEDRAL>
2.39444

>  <SCORE.INTRA.DIHEDRAL.0>
2.1627

>  <SCORE.INTRA.POLAR>
0

>  <SCORE.INTRA.POLAR.0>
0

>  <SCORE.INTRA.REPUL>
0

>  <SCORE.INTRA.REPUL.0>
0

>  <SCORE.INTRA.SOLV>
0.0252971

>  <SCORE.INTRA.SOLV.lig_0>
-5.95779

>  <SCORE.INTRA.VDW>
-0.49401

>  <SCORE.INTRA.VDW.0>
3.81702

>  <SCORE.INTRA.norm>
0.0286344

>  <SCORE.RESTR>
0

>  <SCORE.RESTR.CAVITY>
0

>  <SCORE.RESTR.norm>
0

>  <SCORE.SYSTEM>
0

>  <SCORE.SYSTEM.CONST>
0

>  <SCORE.SYSTEM.DIHEDRAL>
0

>  <SCORE.SYSTEM.SOLV>
0

>  <SCORE.SYSTEM.norm>
0

>  <SCORE.heavy>
25

>  <SCORE.norm>
-2.12208

>  <RMSD>
0.702

$$$$
1q8n_lig
 OpenBabel11021811403D
libRbt.so/2013.1/901 2013/11/27
 25 27  0  0  0  0  0  0  0  0999 V2000
    0.6153    0.8492   -1.5743 C   0  0  0  0  0  0  0  0  0  0  0  0
    0.5970    2.0057   -2.7265 C   0  0  0  0  0  0  0  0  0  0  0  0
   -1.1981    2.3143    3.9017 N   0  0  0  0  0  0  0  0  0  0  0  0
    1.2104    3.2058   -2.5907 C   0  0  0  0  0  0  0  0  0  0  0  0
    2.5570   -4.6521   -2.9449 N   0  0  0  0  0  0  0  0  0  0  0  0
    1.1646    4.2307   -3.6591 C   0  0  0  0  0  0  0  0  0  0  0  0
    0.4970    3.9743   -4.8074 C   0  0  0  0  0  0  0  0  0  0  0  0
   -0.1584    2.6983   -4.9755 C   0  0  0  0  0  0  0  0  0  0  0  0
   -0.1115    1.7832   -4.0042 C   0  0  0  0  0  0  0  0  0  0  0  0
    0.1194    1.2456   -0.0719 C   0  0  0  0  0  0  0  0  0  0  0  0
    0.3962    0.4566    0.9869 C   0  0  0  0  0  0  0  0  0  0  0  0
   -0.0486    0.8027    2.3654 C   0  0  0  0  0  0  0  0  0  0  0  0
   -0.7534    1.9437    2.5908 C   0  0  0  0  0  0  0  0  0  0  0  0
   -1.0617    2.8176    1.4431 C   0  0  0  0  0  0  0  0  0  0  0  0
   -0.6553    2.4900    0.2085 C   0  0  0  0  0  0  0  0  0  0  0  0
    1.1219   -0.6961   -1.8973 C   0  0  0  0  0  0  0  0  0  0  0  0
    1.7545   -1.0132   -3.2243 C   0  0  0  0  0  0  0  0  0  0  0  0
    2.1923   -2.2342   -3.5434 C   0  0  0  0  0  0  0  0  0  0  0  0
    2.0741   -3.3489   -2.5961 C   0  0  0  0  0  0  0  0  0  0  0  0
    1.5081   -3.1196   -1.3929 C   0  0  0  0  0  0  0  0  0  0  0  0
    1.0138   -1.7508   -1.0226 C   0  0  0  0  0  0  0  0  0  0  0  0
   -1.9378    3.5148    4.1464 C   0  0  0  0  0  0  0  0  0  0  0  0
   -0.9085    1.4751    5.0230 C   0  0  0  0  0  0  0  0  0  0  0  0
    3.6048   -4.8020   -3.9134 C   0  0  0  0  0  0  0  0  0  0  0  0
    2.0120   -5.8428   -2.3328 C   0  0  0  0  0  0  0  0  0  0  0  0
  1  2  1  0  0  0  0
  1 10  1  0  0  0  0
  1 16  1  0  0  0  0
  2  4  2  0  0  0  0
  2  9  1  0  0  0  0
  4  6  1  0  0  0  0
  6  7  2  0  0  0  0
  7  8  1  0  0  0  0
  8  9  2  0  0  0  0
 10 11  2  0  0  0  0
 10 15  1  0  0  0  0
 11 12  1  0  0  0  0
 12 13  2  0  0  0  0
 13  3  1  0  0  0  0
 13 14  1  0  0  0  0
 14 15  2  0  0  0  0
 16 17  2  0  0  0  0
 16 21  1  0  0  0  0
 17 18  1  0  0  0  0
 18 19  2  0  0  0  0
 19  5  1  0  0  0  0
 19 20  1  0  0  0  0
 20 21  2  0  0  0  0
 22  3  1  0  0  0  0
 23  3  1  0  0  0  0
 24  5  1  0  0  0  0
 25  5  1  0  0  0  0
M  END
>  <CHROM.1>
53.97570832,-164.24438035,8.33846086,179.86845195,25.55334578,0.62608259
0.28387117,-1.01331915,3.08793456,-1.20452314,2.28243543

>  <Name>
1q8n_lig

>  <RI>
0

>  <Rbt.Current_Directory>
/home/itssahil/PROJECTS/Mol_Feturizer/New_Systems/rnas/1q8n

>  <Rbt.Executable>
rbdock ($Id: //depot/dev/client3/rdock/2013.1/src/exe/rbdock.cxx#4 $)

>  <Rbt.Library>
libRbt.so (2013.1, Build901 2013/11/27)

>  <Rbt.Parameter_File>
/export/apps/rDock/src/rDock_2013.1_src/data/scripts/dock_solv.prm

>  <Rbt.Receptor>
prm/pocket_docking_3.prm

>  <SCORE>
-52.9271

>  <SCORE.INTER>
-53.554

>  <SCORE.INTER.CONST>
1

>  <SCORE.INTER.POLAR>
0

>  <SCORE.INTER.ROT>
5

>  <SCORE.INTER.SOLV>
10.2705

>  <SCORE.INTER.VDW>
-46.0595

>  <SCORE.INTER.norm>
-2.14216

>  <SCORE.INTRA>
0.62692

>  <SCORE.INTRA.DIHEDRAL>
2.37756

>  <SCORE.INTRA.DIHEDRAL.0>
2.1627

>  <SCORE.INTRA.POLAR>
0

>  <SCORE.INTRA.POLAR.0>
0

>  <SCORE.INTRA.REPUL>
0

>  <SCORE.INTRA.REPUL.0>
0

>  <SCORE.INTRA.SOLV>
0.0240958

>  <SCORE.INTRA.SOLV.lig_0>
-5.95779

>  <SCORE.INTRA.VDW>
-0.573909

>  <SCORE.INTRA.VDW.0>
3.81702

>  <SCORE.INTRA.norm>
0.0250768

>  <SCORE.RESTR>
0

>  <SCORE.RESTR.CAVITY>
0

>  <SCORE.RESTR.norm>
0

>  <SCORE.SYSTEM>
0

>  <SCORE.SYSTEM.CONST>
0

>  <SCORE.SYSTEM.DIHEDRAL>
0

>  <SCORE.SYSTEM.SOLV>
0

>  <SCORE.SYSTEM.norm>
0

>  <SCORE.heavy>
25

>  <SCORE.norm>
-2.11708

>  <RMSD>
0.703

$$$$
1q8n_lig
 OpenBabel11021811403D
libRbt.so/2013.1/901 2013/11/27
 25 27  0  0  0  0  0  0  0  0999 V2000
    0.6177    0.8291   -1.6735 C   0  0  0  0  0  0  0  0  0  0  0  0
    0.5323    1.9476   -2.8597 C   0  0  0  0  0  0  0  0  0  0  0  0
    2.6188   -4.6083   -3.0345 N   0  0  0  0  0  0  0  0  0  0  0  0
   -0.1415    1.7575   -4.0193 C   0  0  0  0  0  0  0  0  0  0  0  0
   -1.1539    2.2617    3.8693 N   0  0  0  0  0  0  0  0  0  0  0  0
   -0.1894    2.7969   -5.0734 C   0  0  0  0  0  0  0  0  0  0  0  0
    0.4514    3.9734   -4.8858 C   0  0  0  0  0  0  0  0  0  0  0  0
    1.1703    4.1995   -3.6537 C   0  0  0  0  0  0  0  0  0  0  0  0
    1.2076    3.2538   -2.7117 C   0  0  0  0  0  0  0  0  0  0  0  0
    1.1666   -0.6595   -2.0517 C   0  0  0  0  0  0  0  0  0  0  0  0
    1.7790   -0.9008   -3.2294 C   0  0  0  0  0  0  0  0  0  0  0  0
    2.2863   -2.2534   -3.5914 C   0  0  0  0  0  0  0  0  0  0  0  0
    2.1431   -3.2922   -2.7257 C   0  0  0  0  0  0  0  0  0  0  0  0
    1.4775   -3.0432   -1.4330 C   0  0  0  0  0  0  0  0  0  0  0  0
    1.0251   -1.8199   -1.1240 C   0  0  0  0  0  0  0  0  0  0  0  0
    0.1628    1.1722   -0.1165 C   0  0  0  0  0  0  0  0  0  0  0  0
   -0.5402    2.4660    0.1888 C   0  0  0  0  0  0  0  0  0  0  0  0
   -0.9412    2.7983    1.4189 C   0  0  0  0  0  0  0  0  0  0  0  0
   -0.7098    1.8997    2.5558 C   0  0  0  0  0  0  0  0  0  0  0  0
   -0.0772    0.7281    2.3375 C   0  0  0  0  0  0  0  0  0  0  0  0
    0.3767    0.3431    0.9588 C   0  0  0  0  0  0  0  0  0  0  0  0
    3.6310   -4.8431   -4.0189 C   0  0  0  0  0  0  0  0  0  0  0  0
    2.0835   -5.7449   -2.3515 C   0  0  0  0  0  0  0  0  0  0  0  0
   -0.8407    1.4300    4.9956 C   0  0  0  0  0  0  0  0  0  0  0  0
   -1.9182    3.4673    4.0971 C   0  0  0  0  0  0  0  0  0  0  0  0
  1  2  1  0  0  0  0
  1 10  1  0  0  0  0
  1 16  1  0  0  0  0
  2  4  2  0  0  0  0
  2  9  1  0  0  0  0
  4  6  1  0  0  0  0
  6  7  2  0  0  0  0
  7  8  1  0  0  0  0
  8  9  2  0  0  0  0
 10 11  2  0  0  0  0
 10 15  1  0  0  0  0
 11 12  1  0  0  0  0
 12 13  2  0  0  0  0
 13  3  1  0  0  0  0
 13 14  1  0  0  0  0
 14 15  2  0  0  0  0
 16 17  2  0  0  0  0
 16 21  1  0  0  0  0
 17 18  1  0  0  0  0
 18 19  2  0  0  0  0
 19  5  1  0  0  0  0
 19 20  1  0  0  0  0
 20 21  2  0  0  0  0
 22  3  1  0  0  0  0
 23  3  1  0  0  0  0
 24  5  1  0  0  0  0
 25  5  1  0  0  0  0
M  END
>  <CHROM.1>
55.00827289,12.86401588,9.46308367,21.07353368,-175.37591918,0.65124876,0.27642702
-1.07328808,0.09136346,1.20209298,-0.88372915

>  <Name>
1q8n_lig

>  <RI>
0

>  <Rbt.Current_Directory>
/home/itssahil/PROJECTS/Mol_Feturizer/New_Systems/rnas/1q8n

>  <Rbt.Executable>
rbdock ($Id: //depot/dev/client3/rdock/2013.1/src/exe/rbdock.cxx#4 $)

>  <Rbt.Library>
libRbt.so (2013.1, Build901 2013/11/27)

>  <Rbt.Parameter_File>
/export/apps/rDock/src/rDock_2013.1_src/data/scripts/dock_solv.prm

>  <Rbt.Receptor>
prm/pocket_docking_3.prm

>  <SCORE>
-53.4024

>  <SCORE.INTER>
-53.9633

>  <SCORE.INTER.CONST>
1

>  <SCORE.INTER.POLAR>
0

>  <SCORE.INTER.ROT>
5

>  <SCORE.INTER.SOLV>
10.1964

>  <SCORE.INTER.VDW>
-46.3077

>  <SCORE.INTER.norm>
-2.15853

>  <SCORE.INTRA>
0.560925

>  <SCORE.INTRA.DIHEDRAL>
1.73449

>  <SCORE.INTRA.DIHEDRAL.0>
2.1627

>  <SCORE.INTRA.POLAR>
0

>  <SCORE.INTRA.POLAR.0>
0

>  <SCORE.INTRA.REPUL>
0

>  <SCORE.INTRA.REPUL.0>
0

>  <SCORE.INTRA.SOLV>
0.0245382

>  <SCORE.INTRA.SOLV.lig_0>
-5.95779

>  <SCORE.INTRA.VDW>
-0.318588

>  <SCORE.INTRA.VDW.0>
3.81702

>  <SCORE.INTRA.norm>
0.022437

>  <SCORE.RESTR>
0

>  <SCORE.RESTR.CAVITY>
0

>  <SCORE.RESTR.norm>
0

>  <SCORE.SYSTEM>
0

>  <SCORE.SYSTEM.CONST>
0

>  <SCORE.SYSTEM.DIHEDRAL>
0

>  <SCORE.SYSTEM.SOLV>
0

>  <SCORE.SYSTEM.norm>
0

>  <SCORE.heavy>
25

>  <SCORE.norm>
-2.1361

>  <RMSD>
0.704

$$$$
1q8n_lig
 OpenBabel11021811403D
libRbt.so/2013.1/901 2013/11/27
 25 27  0  0  0  0  0  0  0  0999 V2000
    0.6074    0.8371   -1.6707 C   0  0  0  0  0  0  0  0  0  0  0  0
    0.5211    1.9580   -2.8546 C   0  0  0  0  0  0  0  0  0  0  0  0
    2.5945   -4.6016   -3.0469 N   0  0  0  0  0  0  0  0  0  0  0  0
   -0.1383    1.7632   -4.0217 C   0  0  0  0  0  0  0  0  0  0  0  0
   -1.1709    2.2435    3.8766 N   0  0  0  0  0  0  0  0  0  0  0  0
   -0.1875    2.8051   -5.0734 C   0  0  0  0  0  0  0  0  0  0  0  0
    0.4373    3.9885   -4.8758 C   0  0  0  0  0  0  0  0  0  0  0  0
    1.1405    4.2196   -3.6356 C   0  0  0  0  0  0  0  0  0  0  0  0
    1.1792    3.2717   -2.6959 C   0  0  0  0  0  0  0  0  0  0  0  0
    1.1524   -0.6518   -2.0530 C   0  0  0  0  0  0  0  0  0  0  0  0
    1.7566   -0.8933   -3.2349 C   0  0  0  0  0  0  0  0  0  0  0  0
    2.2603   -2.2462   -3.6008 C   0  0  0  0  0  0  0  0  0  0  0  0
    2.1220   -3.2852   -2.7344 C   0  0  0  0  0  0  0  0  0  0  0  0
    1.4653   -3.0360   -1.4372 C   0  0  0  0  0  0  0  0  0  0  0  0
    1.0161   -1.8124   -1.1247 C   0  0  0  0  0  0  0  0  0  0  0  0
    0.1573    1.1782   -0.1119 C   0  0  0  0  0  0  0  0  0  0  0  0
   -0.6841    2.3913    0.1746 C   0  0  0  0  0  0  0  0  0  0  0  0
   -1.0882    2.7168    1.4055 C   0  0  0  0  0  0  0  0  0  0  0  0
   -0.7228    1.8907    2.5621 C   0  0  0  0  0  0  0  0  0  0  0  0
    0.0367    0.7937    2.3609 C   0  0  0  0  0  0  0  0  0  0  0  0
    0.4955    0.4171    0.9816 C   0  0  0  0  0  0  0  0  0  0  0  0
    2.0690   -5.7722   -2.4129 C   0  0  0  0  0  0  0  0  0  0  0  0
    3.6247   -4.7830   -4.0220 C   0  0  0  0  0  0  0  0  0  0  0  0
   -0.9107    1.3753    4.9889 C   0  0  0  0  0  0  0  0  0  0  0  0
   -1.8864    3.4757    4.1198 C   0  0  0  0  0  0  0  0  0  0  0  0
  1  2  1  0  0  0  0
  1 10  1  0  0  0  0
  1 16  1  0  0  0  0
  2  4  2  0  0  0  0
  2  9  1  0  0  0  0
  4  6  1  0  0  0  0
  6  7  2  0  0  0  0
  7  8  1  0  0  0  0
  8  9  2  0  0  0  0
 10 11  2  0  0  0  0
 10 15  1  0  0  0  0
 11 12  1  0  0  0  0
 12 13  2  0  0  0  0
 13  3  1  0  0  0  0
 13 14  1  0  0  0  0
 14 15  2  0  0  0  0
 16 17  2  0  0  0  0
 16 21  1  0  0  0  0
 17 18  1  0  0  0  0
 18 19  2  0  0  0  0
 19  5  1  0  0  0  0
 19 20  1  0  0  0  0
 20 21  2  0  0  0  0
 22  3  1  0  0  0  0
 23  3  1  0  0  0  0
 24  5  1  0  0  0  0
 25  5  1  0  0  0  0
M  END
>  <CHROM.1>
53.91518578,12.60412691,16.71679332,-157.31351516,174.63205700,0.63637154
0.27958843,-1.07379960,0.09827111,1.20132089,-0.88609083

>  <Name>
1q8n_lig

>  <RI>
0

>  <Rbt.Current_Directory>
/home/itssahil/PROJECTS/Mol_Feturizer/New_Systems/rnas/1q8n

>  <Rbt.Executable>
rbdock ($Id: //depot/dev/client3/rdock/2013.1/src/exe/rbdock.cxx#4 $)

>  <Rbt.Library>
libRbt.so (2013.1, Build901 2013/11/27)

>  <Rbt.Parameter_File>
/export/apps/rDock/src/rDock_2013.1_src/data/scripts/dock_solv.prm

>  <Rbt.Receptor>
prm/pocket_docking_4.prm

>  <SCORE>
-53.2141

>  <SCORE.INTER>
-53.7896

>  <SCORE.INTER.CONST>
1

>  <SCORE.INTER.POLAR>
0

>  <SCORE.INTER.ROT>
5

>  <SCORE.INTER.SOLV>
10.2337

>  <SCORE.INTER.VDW>
-46.2043

>  <SCORE.INTER.norm>
-2.15158

>  <SCORE.INTRA>
0.575423

>  <SCORE.INTRA.DIHEDRAL>
2.0128

>  <SCORE.INTRA.DIHEDRAL.0>
2.1627

>  <SCORE.INTRA.POLAR>
0

>  <SCORE.INTRA.POLAR.0>
0

>  <SCORE.INTRA.REPUL>
0

>  <SCORE.INTRA.REPUL.0>
0

>  <SCORE.INTRA.SOLV>
0.0216433

>  <SCORE.INTRA.SOLV.lig_0>
-5.95779

>  <SCORE.INTRA.VDW>
-0.4418

>  <SCORE.INTRA.VDW.0>
3.81702

>  <SCORE.INTRA.norm>
0.0230169

>  <SCORE.RESTR>
0

>  <SCORE.RESTR.CAVITY>
0

>  <SCORE.RESTR.norm>
0

>  <SCORE.SYSTEM>
0

>  <SCORE.SYSTEM.CONST>
0

>  <SCORE.SYSTEM.DIHEDRAL>
0

>  <SCORE.SYSTEM.SOLV>
0

>  <SCORE.SYSTEM.norm>
0

>  <SCORE.heavy>
25

>  <SCORE.norm>
-2.12857

>  <RMSD>
0.704

$$$$
1q8n_lig
 OpenBabel11021811403D
libRbt.so/2013.1/901 2013/11/27
 25 27  0  0  0  0  0  0  0  0999 V2000
    0.6129    0.8521   -1.5870 C   0  0  0  0  0  0  0  0  0  0  0  0
    0.5844    2.0075   -2.7401 C   0  0  0  0  0  0  0  0  0  0  0  0
   -1.1790    2.3150    3.8966 N   0  0  0  0  0  0  0  0  0  0  0  0
    1.1951    3.2095   -2.6091 C   0  0  0  0  0  0  0  0  0  0  0  0
    2.5722   -4.6422   -2.9608 N   0  0  0  0  0  0  0  0  0  0  0  0
    1.1400    4.2333   -3.6781 C   0  0  0  0  0  0  0  0  0  0  0  0
    0.4664    3.9739   -4.8222 C   0  0  0  0  0  0  0  0  0  0  0  0
   -0.1863    2.6959   -4.9853 C   0  0  0  0  0  0  0  0  0  0  0  0
   -0.1310    1.7817   -4.0134 C   0  0  0  0  0  0  0  0  0  0  0  0
    0.1227    1.2479   -0.0827 C   0  0  0  0  0  0  0  0  0  0  0  0
    0.3676    0.4382    0.9684 C   0  0  0  0  0  0  0  0  0  0  0  0
   -0.0725    0.7835    2.3486 C   0  0  0  0  0  0  0  0  0  0  0  0
   -0.7401    1.9446    2.5837 C   0  0  0  0  0  0  0  0  0  0  0  0
   -1.0133    2.8412    1.4445 C   0  0  0  0  0  0  0  0  0  0  0  0
   -0.6117    2.5141    0.2083 C   0  0  0  0  0  0  0  0  0  0  0  0
    1.1241   -0.6914   -1.9112 C   0  0  0  0  0  0  0  0  0  0  0  0
    1.7651   -1.0039   -3.2352 C   0  0  0  0  0  0  0  0  0  0  0  0
    2.2069   -2.2233   -3.5549 C   0  0  0  0  0  0  0  0  0  0  0  0
    2.0850   -3.3407   -2.6113 C   0  0  0  0  0  0  0  0  0  0  0  0
    1.5115   -3.1156   -1.4110 C   0  0  0  0  0  0  0  0  0  0  0  0
    1.0126   -1.7487   -1.0399 C   0  0  0  0  0  0  0  0  0  0  0  0
   -1.9206    3.5138    4.1442 C   0  0  0  0  0  0  0  0  0  0  0  0
   -0.8814    1.4776    5.0170 C   0  0  0  0  0  0  0  0  0  0  0  0
    3.6084   -4.7893   -3.9421 C   0  0  0  0  0  0  0  0  0  0  0  0
    2.0433   -5.8339   -2.3365 C   0  0  0  0  0  0  0  0  0  0  0  0
  1  2  1  0  0  0  0
  1 10  1  0  0  0  0
  1 16  1  0  0  0  0
  2  4  2  0  0  0  0
  2  9  1  0  0  0  0
  4  6  1  0  0  0  0
  6  7  2  0  0  0  0
  7  8  1  0  0  0  0
  8  9  2  0  0  0  0
 10 11  2  0  0  0  0
 10 15  1  0  0  0  0
 11 12  1  0  0  0  0
 12 13  2  0  0  0  0
 13  3  1  0  0  0  0
 13 14  1  0  0  0  0
 14 15  2  0  0  0  0
 16 17  2  0  0  0  0
 16 21  1  0  0  0  0
 17 18  1  0  0  0  0
 18 19  2  0  0  0  0
 19  5  1  0  0  0  0
 19 20  1  0  0  0  0
 20 21  2  0  0  0  0
 22  3  1  0  0  0  0
 23  3  1  0  0  0  0
 24  5  1  0  0  0  0
 25  5  1  0  0  0  0
M  END
>  <CHROM.1>
54.06212597,-166.55991751,9.00420420,-177.88182857,24.36010333,0.62966603
0.28764050,-1.02518715,3.07407117,-1.20483797,2.26866270

>  <Name>
1q8n_lig

>  <RI>
0

>  <Rbt.Current_Directory>
/home/itssahil/PROJECTS/Mol_Feturizer/New_Systems/rnas/1q8n

>  <Rbt.Executable>
rbdock ($Id: //depot/dev/client3/rdock/2013.1/src/exe/rbdock.cxx#4 $)

>  <Rbt.Library>
libRbt.so (2013.1, Build901 2013/11/27)

>  <Rbt.Parameter_File>
/export/apps/rDock/src/rDock_2013.1_src/data/scripts/dock_solv.prm

>  <Rbt.Receptor>
prm/pocket_docking_4.prm

>  <SCORE>
-52.9437

>  <SCORE.INTER>
-53.5647

>  <SCORE.INTER.CONST>
1

>  <SCORE.INTER.POLAR>
0

>  <SCORE.INTER.ROT>
5

>  <SCORE.INTER.SOLV>
10.2757

>  <SCORE.INTER.VDW>
-46.0684

>  <SCORE.INTER.norm>
-2.14259

>  <SCORE.INTRA>
0.621004

>  <SCORE.INTRA.DIHEDRAL>
2.19105

>  <SCORE.INTRA.DIHEDRAL.0>
2.1627

>  <SCORE.INTRA.POLAR>
0

>  <SCORE.INTRA.POLAR.0>
0

>  <SCORE.INTRA.REPUL>
0

>  <SCORE.INTRA.REPUL.0>
0

>  <SCORE.INTRA.SOLV>
0.0250638

>  <SCORE.INTRA.SOLV.lig_0>
-5.95779

>  <SCORE.INTRA.VDW>
-0.487051

>  <SCORE.INTRA.VDW.0>
3.81702

>  <SCORE.INTRA.norm>
0.0248401

>  <SCORE.RESTR>
0

>  <SCORE.RESTR.CAVITY>
0

>  <SCORE.RESTR.norm>
0

>  <SCORE.SYSTEM>
0

>  <SCORE.SYSTEM.CONST>
0

>  <SCORE.SYSTEM.DIHEDRAL>
0

>  <SCORE.SYSTEM.SOLV>
0

>  <SCORE.SYSTEM.norm>
0

>  <SCORE.heavy>
25

>  <SCORE.norm>
-2.11775

>  <RMSD>
0.705

$$$$
1q8n_lig
 OpenBabel11021811403D
libRbt.so/2013.1/901 2013/11/27
 25 27  0  0  0  0  0  0  0  0999 V2000
    0.6503    0.8437   -1.6638 C   0  0  0  0  0  0  0  0  0  0  0  0
    0.5851    1.9707   -2.8432 C   0  0  0  0  0  0  0  0  0  0  0  0
    2.5920   -4.6091   -3.0488 N   0  0  0  0  0  0  0  0  0  0  0  0
    1.2063    3.1718   -2.7645 C   0  0  0  0  0  0  0  0  0  0  0  0
   -1.1638    2.2380    3.8750 N   0  0  0  0  0  0  0  0  0  0  0  0
    1.1170    4.1695   -3.8556 C   0  0  0  0  0  0  0  0  0  0  0  0
    0.4004    3.8861   -4.9675 C   0  0  0  0  0  0  0  0  0  0  0  0
   -0.2643    2.6084   -5.0749 C   0  0  0  0  0  0  0  0  0  0  0  0
   -0.1778    1.7180   -4.0834 C   0  0  0  0  0  0  0  0  0  0  0  0
    1.1827   -0.6492   -2.0485 C   0  0  0  0  0  0  0  0  0  0  0  0
    1.7667   -0.8981   -3.2390 C   0  0  0  0  0  0  0  0  0  0  0  0
    2.2587   -2.2547   -3.6072 C   0  0  0  0  0  0  0  0  0  0  0  0
    2.1301   -3.2895   -2.7343 C   0  0  0  0  0  0  0  0  0  0  0  0
    1.4956   -3.0320   -1.4278 C   0  0  0  0  0  0  0  0  0  0  0  0
    1.0567   -1.8053   -1.1132 C   0  0  0  0  0  0  0  0  0  0  0  0
    0.1912    1.1825   -0.1071 C   0  0  0  0  0  0  0  0  0  0  0  0
   -0.6765    2.3784    0.1727 C   0  0  0  0  0  0  0  0  0  0  0  0
   -1.0889    2.7010    1.4017 C   0  0  0  0  0  0  0  0  0  0  0  0
   -0.7067    1.8887    2.5626 C   0  0  0  0  0  0  0  0  0  0  0  0
    0.0765    0.8075    2.3674 C   0  0  0  0  0  0  0  0  0  0  0  0
    0.5448    0.4342    0.9904 C   0  0  0  0  0  0  0  0  0  0  0  0
    2.0761   -5.7744   -2.3972 C   0  0  0  0  0  0  0  0  0  0  0  0
    3.6013   -4.7995   -4.0439 C   0  0  0  0  0  0  0  0  0  0  0  0
   -1.9246    3.4365    4.0828 C   0  0  0  0  0  0  0  0  0  0  0  0
   -0.8797    1.3982    5.0167 C   0  0  0  0  0  0  0  0  0  0  0  0
  1  2  1  0  0  0  0
  1 10  1  0  0  0  0
  1 16  1  0  0  0  0
  2  4  2  0  0  0  0
  2  9  1  0  0  0  0
  4  6  1  0  0  0  0
  6  7  2  0  0  0  0
  7  8  1  0  0  0  0
  8  9  2  0  0  0  0
 10 11  2  0  0  0  0
 10 15  1  0  0  0  0
 11 12  1  0  0  0  0
 12 13  2  0  0  0  0
 13  3  1  0  0  0  0
 13 14  1  0  0  0  0
 14 15  2  0  0  0  0
 16 17  2  0  0  0  0
 16 21  1  0  0  0  0
 17 18  1  0  0  0  0
 18 19  2  0  0  0  0
 19  5  1  0  0  0  0
 19 20  1  0  0  0  0
 20 21  2  0  0  0  0
 22  3  1  0  0  0  0
 23  3  1  0  0  0  0
 24  5  1  0  0  0  0
 25  5  1  0  0  0  0
M  END
>  <CHROM.1>
-124.31434744,11.08934939,18.67509461,-157.59105431,-4.25612618,0.64373176
0.25871483,-1.09029279,0.14031861,1.20039989,-0.91612928

>  <Name>
1q8n_lig

>  <RI>
0

>  <Rbt.Current_Directory>
/home/itssahil/PROJECTS/Mol_Feturizer/New_Systems/rnas/1q8n

>  <Rbt.Executable>
rbdock ($Id: //depot/dev/client3/rdock/2013.1/src/exe/rbdock.cxx#4 $)

>  <Rbt.Library>
libRbt.so (2013.1, Build901 2013/11/27)

>  <Rbt.Parameter_File>
/export/apps/rDock/src/rDock_2013.1_src/data/scripts/dock_solv.prm

>  <Rbt.Receptor>
prm/pocket_docking_4.prm

>  <SCORE>
-53.8804

>  <SCORE.INTER>
-54.3663

>  <SCORE.INTER.CONST>
1

>  <SCORE.INTER.POLAR>
0

>  <SCORE.INTER.ROT>
5

>  <SCORE.INTER.SOLV>
10.1133

>  <SCORE.INTER.VDW>
-46.5486

>  <SCORE.INTER.norm>
-2.17465

>  <SCORE.INTRA>
0.485877

>  <SCORE.INTRA.DIHEDRAL>
1.92729

>  <SCORE.INTRA.DIHEDRAL.0>
2.1627

>  <SCORE.INTRA.POLAR>
0

>  <SCORE.INTRA.POLAR.0>
0

>  <SCORE.INTRA.REPUL>
0

>  <SCORE.INTRA.REPUL.0>
0

>  <SCORE.INTRA.SOLV>
0.0193172

>  <SCORE.INTRA.SOLV.lig_0>
-5.95779

>  <SCORE.INTRA.VDW>
-0.487425

>  <SCORE.INTRA.VDW.0>
3.81702

>  <SCORE.INTRA.norm>
0.0194351

>  <SCORE.RESTR>
0

>  <SCORE.RESTR.CAVITY>
0

>  <SCORE.RESTR.norm>
0

>  <SCORE.SYSTEM>
0

>  <SCORE.SYSTEM.CONST>
0

>  <SCORE.SYSTEM.DIHEDRAL>
0

>  <SCORE.SYSTEM.SOLV>
0

>  <SCORE.SYSTEM.norm>
0

>  <SCORE.heavy>
25

>  <SCORE.norm>
-2.15522

>  <RMSD>
0.706

$$$$
1q8n_lig
 OpenBabel11021811413D
libRbt.so/2013.1/901 2013/11/27
 25 27  0  0  0  0  0  0  0  0999 V2000
    0.6099    0.8648   -1.5960 C   0  0  0  0  0  0  0  0  0  0  0  0
    0.5942    2.0200   -2.7496 C   0  0  0  0  0  0  0  0  0  0  0  0
   -1.2057    2.3001    3.8872 N   0  0  0  0  0  0  0  0  0  0  0  0
    1.2367    3.2063   -2.6282 C   0  0  0  0  0  0  0  0  0  0  0  0
    2.5481   -4.6397   -2.9590 N   0  0  0  0  0  0  0  0  0  0  0  0
    1.1924    4.2306   -3.6972 C   0  0  0  0  0  0  0  0  0  0  0  0
    0.4963    3.9877   -4.8314 C   0  0  0  0  0  0  0  0  0  0  0  0
   -0.1906    2.7265   -4.9841 C   0  0  0  0  0  0  0  0  0  0  0  0
   -0.1446    1.8117   -4.0124 C   0  0  0  0  0  0  0  0  0  0  0  0
    0.1114    1.2632   -0.0950 C   0  0  0  0  0  0  0  0  0  0  0  0
   -0.5761    2.4012    0.1345 C   0  0  0  0  0  0  0  0  0  0  0  0
   -1.0390    2.7809    1.4981 C   0  0  0  0  0  0  0  0  0  0  0  0
   -0.7764    1.9726    2.5597 C   0  0  0  0  0  0  0  0  0  0  0  0
   -0.0275    0.7238    2.3238 C   0  0  0  0  0  0  0  0  0  0  0  0
    0.3834    0.3981    1.0903 C   0  0  0  0  0  0  0  0  0  0  0  0
    1.1164   -0.6811   -1.9163 C   0  0  0  0  0  0  0  0  0  0  0  0
    1.7309   -1.0049   -3.2501 C   0  0  0  0  0  0  0  0  0  0  0  0
    2.1677   -2.2267   -3.5676 C   0  0  0  0  0  0  0  0  0  0  0  0
    2.0664   -3.3356   -2.6116 C   0  0  0  0  0  0  0  0  0  0  0  0
    1.5169   -3.1001   -1.4020 C   0  0  0  0  0  0  0  0  0  0  0  0
    1.0239   -1.7305   -1.0334 C   0  0  0  0  0  0  0  0  0  0  0  0
   -1.9363    3.4954    4.1805 C   0  0  0  0  0  0  0  0  0  0  0  0
   -0.9095    1.4214    4.9759 C   0  0  0  0  0  0  0  0  0  0  0  0
    3.5774   -4.7933   -3.9465 C   0  0  0  0  0  0  0  0  0  0  0  0
    2.0205   -5.8275   -2.3263 C   0  0  0  0  0  0  0  0  0  0  0  0
  1  2  1  0  0  0  0
  1 10  1  0  0  0  0
  1 16  1  0  0  0  0
  2  4  2  0  0  0  0
  2  9  1  0  0  0  0
  4  6  1  0  0  0  0
  6  7  2  0  0  0  0
  7  8  1  0  0  0  0
  8  9  2  0  0  0  0
 10 11  2  0  0  0  0
 10 15  1  0  0  0  0
 11 12  1  0  0  0  0
 12 13  2  0  0  0  0
 13  3  1  0  0  0  0
 13 14  1  0  0  0  0
 14 15  2  0  0  0  0
 16 17  2  0  0  0  0
 16 21  1  0  0  0  0
 17 18  1  0  0  0  0
 18 19  2  0  0  0  0
 19  5  1  0  0  0  0
 19 20  1  0  0  0  0
 20 21  2  0  0  0  0
 22  3  1  0  0  0  0
 23  3  1  0  0  0  0
 24  5  1  0  0  0  0
 25  5  1  0  0  0  0
M  END
>  <CHROM.1>
55.74989789,14.91244749,7.35058726,0.00073566,25.21498399,0.62534250,0.28001896
-1.02690371,3.08237430,-1.20491871,2.28425449

>  <Name>
1q8n_lig

>  <RI>
0

>  <Rbt.Current_Directory>
/home/itssahil/PROJECTS/Mol_Feturizer/New_Systems/rnas/1q8n

>  <Rbt.Executable>
rbdock ($Id: //depot/dev/client3/rdock/2013.1/src/exe/rbdock.cxx#4 $)

>  <Rbt.Library>
libRbt.so (2013.1, Build901 2013/11/27)

>  <Rbt.Parameter_File>
/export/apps/rDock/src/rDock_2013.1_src/data/scripts/dock_solv.prm

>  <Rbt.Receptor>
prm/pocket_docking_6.prm

>  <SCORE>
-52.9195

>  <SCORE.INTER>
-53.4802

>  <SCORE.INTER.CONST>
1

>  <SCORE.INTER.POLAR>
0

>  <SCORE.INTER.ROT>
5

>  <SCORE.INTER.SOLV>
10.2777

>  <SCORE.INTER.VDW>
-46.0127

>  <SCORE.INTER.norm>
-2.13921

>  <SCORE.INTRA>
0.560748

>  <SCORE.INTRA.DIHEDRAL>
2.31769

>  <SCORE.INTRA.DIHEDRAL.0>
2.1627

>  <SCORE.INTRA.POLAR>
0

>  <SCORE.INTRA.POLAR.0>
0

>  <SCORE.INTRA.REPUL>
0

>  <SCORE.INTRA.REPUL.0>
0

>  <SCORE.INTRA.SOLV>
0.0232934

>  <SCORE.INTRA.SOLV.lig_0>
-5.95779

>  <SCORE.INTRA.VDW>
-0.609742

>  <SCORE.INTRA.VDW.0>
3.81702

>  <SCORE.INTRA.norm>
0.0224299

>  <SCORE.RESTR>
0

>  <SCORE.RESTR.CAVITY>
0

>  <SCORE.RESTR.norm>
0

>  <SCORE.SYSTEM>
0

>  <SCORE.SYSTEM.CONST>
0

>  <SCORE.SYSTEM.DIHEDRAL>
0

>  <SCORE.SYSTEM.SOLV>
0

>  <SCORE.SYSTEM.norm>
0

>  <SCORE.heavy>
25

>  <SCORE.norm>
-2.11678

>  <RMSD>
0.707

$$$$
1q8n_lig
 OpenBabel11021811403D
libRbt.so/2013.1/901 2013/11/27
 25 27  0  0  0  0  0  0  0  0999 V2000
    0.6593    0.8499   -1.6489 C   0  0  0  0  0  0  0  0  0  0  0  0
    0.6007    1.9816   -2.8242 C   0  0  0  0  0  0  0  0  0  0  0  0
    2.5886   -4.6033   -3.0495 N   0  0  0  0  0  0  0  0  0  0  0  0
    1.2005    3.1922   -2.7267 C   0  0  0  0  0  0  0  0  0  0  0  0
   -1.1647    2.2296    3.8903 N   0  0  0  0  0  0  0  0  0  0  0  0
    1.1180    4.1937   -3.8149 C   0  0  0  0  0  0  0  0  0  0  0  0
    0.4297    3.9044   -4.9429 C   0  0  0  0  0  0  0  0  0  0  0  0
   -0.2117    2.6166   -5.0703 C   0  0  0  0  0  0  0  0  0  0  0  0
   -0.1317    1.7229   -4.0814 C   0  0  0  0  0  0  0  0  0  0  0  0
    1.1884   -0.6430   -2.0379 C   0  0  0  0  0  0  0  0  0  0  0  0
    1.7866   -0.8864   -3.2225 C   0  0  0  0  0  0  0  0  0  0  0  0
    2.2759   -2.2429   -3.5945 C   0  0  0  0  0  0  0  0  0  0  0  0
    2.1300   -3.2835   -2.7312 C   0  0  0  0  0  0  0  0  0  0  0  0
    1.4798   -3.0322   -1.4311 C   0  0  0  0  0  0  0  0  0  0  0  0
    1.0436   -1.8054   -1.1131 C   0  0  0  0  0  0  0  0  0  0  0  0
    0.1969    1.1841   -0.0922 C   0  0  0  0  0  0  0  0  0  0  0  0
   -0.6602    2.3869    0.1910 C   0  0  0  0  0  0  0  0  0  0  0  0
   -1.0746    2.7064    1.4200 C   0  0  0  0  0  0  0  0  0  0  0  0
   -0.7055    1.8835    2.5778 C   0  0  0  0  0  0  0  0  0  0  0  0
    0.0678    0.7957    2.3795 C   0  0  0  0  0  0  0  0  0  0  0  0
    0.5384    0.4259    1.0023 C   0  0  0  0  0  0  0  0  0  0  0  0
    3.5988   -4.8441   -4.0344 C   0  0  0  0  0  0  0  0  0  0  0  0
    2.0373   -5.7379   -2.3757 C   0  0  0  0  0  0  0  0  0  0  0  0
   -1.9084    3.4379    4.1031 C   0  0  0  0  0  0  0  0  0  0  0  0
   -0.9000    1.3768    5.0269 C   0  0  0  0  0  0  0  0  0  0  0  0
  1  2  1  0  0  0  0
  1 10  1  0  0  0  0
  1 16  1  0  0  0  0
  2  4  2  0  0  0  0
  2  9  1  0  0  0  0
  4  6  1  0  0  0  0
  6  7  2  0  0  0  0
  7  8  1  0  0  0  0
  8  9  2  0  0  0  0
 10 11  2  0  0  0  0
 10 15  1  0  0  0  0
 11 12  1  0  0  0  0
 12 13  2  0  0  0  0
 13  3  1  0  0  0  0
 13 14  1  0  0  0  0
 14 15  2  0  0  0  0
 16 17  2  0  0  0  0
 16 21  1  0  0  0  0
 17 18  1  0  0  0  0
 18 19  2  0  0  0  0
 19  5  1  0  0  0  0
 19 20  1  0  0  0  0
 20 21  2  0  0  0  0
 22  3  1  0  0  0  0
 23  3  1  0  0  0  0
 24  5  1  0  0  0  0
 25  5  1  0  0  0  0
M  END
>  <CHROM.1>
-125.83427681,11.73907604,18.24972752,21.76219940,-4.59113868,0.64866684
0.26194178,-1.07626699,0.12559609,1.20192327,-0.89901111

>  <Name>
1q8n_lig

>  <RI>
0

>  <Rbt.Current_Directory>
/home/itssahil/PROJECTS/Mol_Feturizer/New_Systems/rnas/1q8n

>  <Rbt.Executable>
rbdock ($Id: //depot/dev/client3/rdock/2013.1/src/exe/rbdock.cxx#4 $)

>  <Rbt.Library>
libRbt.so (2013.1, Build901 2013/11/27)

>  <Rbt.Parameter_File>
/export/apps/rDock/src/rDock_2013.1_src/data/scripts/dock_solv.prm

>  <Rbt.Receptor>
prm/pocket_docking_5.prm

>  <SCORE>
-54.0517

>  <SCORE.INTER>
-54.516

>  <SCORE.INTER.CONST>
1

>  <SCORE.INTER.POLAR>
0

>  <SCORE.INTER.ROT>
5

>  <SCORE.INTER.SOLV>
10.0888

>  <SCORE.INTER.VDW>
-46.6403

>  <SCORE.INTER.norm>
-2.18064

>  <SCORE.INTRA>
0.464304

>  <SCORE.INTRA.DIHEDRAL>
1.83813

>  <SCORE.INTRA.DIHEDRAL.0>
2.1627

>  <SCORE.INTRA.POLAR>
0

>  <SCORE.INTRA.POLAR.0>
0

>  <SCORE.INTRA.REPUL>
0

>  <SCORE.INTRA.REPUL.0>
0

>  <SCORE.INTRA.SOLV>
0.0215042

>  <SCORE.INTRA.SOLV.lig_0>
-5.95779

>  <SCORE.INTRA.VDW>
-0.465512

>  <SCORE.INTRA.VDW.0>
3.81702

>  <SCORE.INTRA.norm>
0.0185722

>  <SCORE.RESTR>
0

>  <SCORE.RESTR.CAVITY>
0

>  <SCORE.RESTR.norm>
0

>  <SCORE.SYSTEM>
0

>  <SCORE.SYSTEM.CONST>
0

>  <SCORE.SYSTEM.DIHEDRAL>
0

>  <SCORE.SYSTEM.SOLV>
0

>  <SCORE.SYSTEM.norm>
0

>  <SCORE.heavy>
25

>  <SCORE.norm>
-2.16207

>  <RMSD>
0.710

$$$$
1q8n_lig
 OpenBabel11021811413D
libRbt.so/2013.1/901 2013/11/27
 25 27  0  0  0  0  0  0  0  0999 V2000
    0.6033    0.8372   -1.6166 C   0  0  0  0  0  0  0  0  0  0  0  0
    0.5220    1.9502   -2.8083 C   0  0  0  0  0  0  0  0  0  0  0  0
    2.5786   -4.6159   -2.9522 N   0  0  0  0  0  0  0  0  0  0  0  0
   -0.1378    1.7501   -3.9742 C   0  0  0  0  0  0  0  0  0  0  0  0
   -1.1587    2.3041    3.9202 N   0  0  0  0  0  0  0  0  0  0  0  0
   -0.1824    2.7848   -5.0331 C   0  0  0  0  0  0  0  0  0  0  0  0
    0.4472    3.9671   -4.8435 C   0  0  0  0  0  0  0  0  0  0  0  0
    1.1509    4.2038   -3.6047 C   0  0  0  0  0  0  0  0  0  0  0  0
    1.1855    3.2622   -2.6584 C   0  0  0  0  0  0  0  0  0  0  0  0
    1.1451   -0.6557   -1.9878 C   0  0  0  0  0  0  0  0  0  0  0  0
    1.7484   -0.9074   -3.1681 C   0  0  0  0  0  0  0  0  0  0  0  0
    2.2491   -2.2641   -3.5239 C   0  0  0  0  0  0  0  0  0  0  0  0
    2.1090   -3.2962   -2.6496 C   0  0  0  0  0  0  0  0  0  0  0  0
    1.4533   -3.0358   -1.3541 C   0  0  0  0  0  0  0  0  0  0  0  0
    1.0067   -1.8090   -1.0507 C   0  0  0  0  0  0  0  0  0  0  0  0
    0.1514    1.1901   -0.0610 C   0  0  0  0  0  0  0  0  0  0  0  0
   -0.5560    2.4834    0.2367 C   0  0  0  0  0  0  0  0  0  0  0  0
   -0.9549    2.8233    1.4654 C   0  0  0  0  0  0  0  0  0  0  0  0
   -0.7168    1.9341    2.6083 C   0  0  0  0  0  0  0  0  0  0  0  0
   -0.0802    0.7634    2.3969 C   0  0  0  0  0  0  0  0  0  0  0  0
    0.3715    0.3700    1.0199 C   0  0  0  0  0  0  0  0  0  0  0  0
    3.5844   -4.8607   -3.9407 C   0  0  0  0  0  0  0  0  0  0  0  0
    2.0434   -5.7461   -2.2585 C   0  0  0  0  0  0  0  0  0  0  0  0
   -1.9168    3.5060    4.1180 C   0  0  0  0  0  0  0  0  0  0  0  0
   -0.8618    1.4821    5.0716 C   0  0  0  0  0  0  0  0  0  0  0  0
  1  2  1  0  0  0  0
  1 10  1  0  0  0  0
  1 16  1  0  0  0  0
  2  4  2  0  0  0  0
  2  9  1  0  0  0  0
  4  6  1  0  0  0  0
  6  7  2  0  0  0  0
  7  8  1  0  0  0  0
  8  9  2  0  0  0  0
 10 11  2  0  0  0  0
 10 15  1  0  0  0  0
 11 12  1  0  0  0  0
 12 13  2  0  0  0  0
 13  3  1  0  0  0  0
 13 14  1  0  0  0  0
 14 15  2  0  0  0  0
 16 17  2  0  0  0  0
 16 21  1  0  0  0  0
 17 18  1  0  0  0  0
 18 19  2  0  0  0  0
 19  5  1  0  0  0  0
 19 20  1  0  0  0  0
 20 21  2  0  0  0  0
 22  3  1  0  0  0  0
 23  3  1  0  0  0  0
 24  5  1  0  0  0  0
 25  5  1  0  0  0  0
M  END
>  <CHROM.1>
54.03311890,12.47402434,9.98353167,21.15967193,4.14151276,0.63367151,0.28714079
-1.01373727,0.08623575,1.20576774,-0.88381382

>  <Name>
1q8n_lig

>  <RI>
0

>  <Rbt.Current_Directory>
/home/itssahil/PROJECTS/Mol_Feturizer/New_Systems/rnas/1q8n

>  <Rbt.Executable>
rbdock ($Id: //depot/dev/client3/rdock/2013.1/src/exe/rbdock.cxx#4 $)

>  <Rbt.Library>
libRbt.so (2013.1, Build901 2013/11/27)

>  <Rbt.Parameter_File>
/export/apps/rDock/src/rDock_2013.1_src/data/scripts/dock_solv.prm

>  <Rbt.Receptor>
prm/pocket_docking_8.prm

>  <SCORE>
-53.4674

>  <SCORE.INTER>
-53.9786

>  <SCORE.INTER.CONST>
1

>  <SCORE.INTER.POLAR>
0

>  <SCORE.INTER.ROT>
5

>  <SCORE.INTER.SOLV>
10.2189

>  <SCORE.INTER.VDW>
-46.3253

>  <SCORE.INTER.norm>
-2.15914

>  <SCORE.INTRA>
0.511147

>  <SCORE.INTRA.DIHEDRAL>
1.731

>  <SCORE.INTRA.DIHEDRAL.0>
2.1627

>  <SCORE.INTRA.POLAR>
0

>  <SCORE.INTRA.POLAR.0>
0

>  <SCORE.INTRA.REPUL>
0

>  <SCORE.INTRA.REPUL.0>
0

>  <SCORE.INTRA.SOLV>
0.0258473

>  <SCORE.INTRA.SOLV.lig_0>
-5.95779

>  <SCORE.INTRA.VDW>
-0.367279

>  <SCORE.INTRA.VDW.0>
3.81702

>  <SCORE.INTRA.norm>
0.0204459

>  <SCORE.RESTR>
0

>  <SCORE.RESTR.CAVITY>
0

>  <SCORE.RESTR.norm>
0

>  <SCORE.SYSTEM>
0

>  <SCORE.SYSTEM.CONST>
0

>  <SCORE.SYSTEM.DIHEDRAL>
0

>  <SCORE.SYSTEM.SOLV>
0

>  <SCORE.SYSTEM.norm>
0

>  <SCORE.heavy>
25

>  <SCORE.norm>
-2.1387

>  <RMSD>
0.710

$$$$
1q8n_lig
 OpenBabel11021811403D
libRbt.so/2013.1/901 2013/11/27
 25 27  0  0  0  0  0  0  0  0999 V2000
    0.6179    0.8538   -1.5709 C   0  0  0  0  0  0  0  0  0  0  0  0
    0.5996    2.0132   -2.7203 C   0  0  0  0  0  0  0  0  0  0  0  0
   -1.1860    2.3082    3.9111 N   0  0  0  0  0  0  0  0  0  0  0  0
    1.2026    3.2176   -2.5767 C   0  0  0  0  0  0  0  0  0  0  0  0
    2.5570   -4.6454   -2.9534 N   0  0  0  0  0  0  0  0  0  0  0  0
    1.1573    4.2449   -3.6427 C   0  0  0  0  0  0  0  0  0  0  0  0
    0.5007    3.9863   -4.7969 C   0  0  0  0  0  0  0  0  0  0  0  0
   -0.1434    2.7058   -4.9734 C   0  0  0  0  0  0  0  0  0  0  0  0
   -0.0970    1.7885   -4.0041 C   0  0  0  0  0  0  0  0  0  0  0  0
    0.1242    1.2472   -0.0670 C   0  0  0  0  0  0  0  0  0  0  0  0
    0.3365    0.4201    0.9775 C   0  0  0  0  0  0  0  0  0  0  0  0
   -0.1072    0.7629    2.3572 C   0  0  0  0  0  0  0  0  0  0  0  0
   -0.7448    1.9395    2.5984 C   0  0  0  0  0  0  0  0  0  0  0  0
   -0.9821    2.8552    1.4665 C   0  0  0  0  0  0  0  0  0  0  0  0
   -0.5777    2.5302    0.2306 C   0  0  0  0  0  0  0  0  0  0  0  0
    1.1222   -0.6912   -1.8983 C   0  0  0  0  0  0  0  0  0  0  0  0
    1.7863   -0.9981   -3.2122 C   0  0  0  0  0  0  0  0  0  0  0  0
    2.2239   -2.2185   -3.5337 C   0  0  0  0  0  0  0  0  0  0  0  0
    2.0741   -3.3428   -2.6024 C   0  0  0  0  0  0  0  0  0  0  0  0
    1.4792   -3.1228   -1.4115 C   0  0  0  0  0  0  0  0  0  0  0  0
    0.9848   -1.7549   -1.0385 C   0  0  0  0  0  0  0  0  0  0  0  0
   -1.9348    3.5027    4.1579 C   0  0  0  0  0  0  0  0  0  0  0  0
   -0.8835    1.4732    5.0321 C   0  0  0  0  0  0  0  0  0  0  0  0
    2.0295   -5.8128   -2.3074 C   0  0  0  0  0  0  0  0  0  0  0  0
    3.5760   -4.8207   -3.9636 C   0  0  0  0  0  0  0  0  0  0  0  0
  1  2  1  0  0  0  0
  1 10  1  0  0  0  0
  1 16  1  0  0  0  0
  2  4  2  0  0  0  0
  2  9  1  0  0  0  0
  4  6  1  0  0  0  0
  6  7  2  0  0  0  0
  7  8  1  0  0  0  0
  8  9  2  0  0  0  0
 10 11  2  0  0  0  0
 10 15  1  0  0  0  0
 11 12  1  0  0  0  0
 12 13  2  0  0  0  0
 13  3  1  0  0  0  0
 13 14  1  0  0  0  0
 14 15  2  0  0  0  0
 16 17  2  0  0  0  0
 16 21  1  0  0  0  0
 17 18  1  0  0  0  0
 18 19  2  0  0  0  0
 19  5  1  0  0  0  0
 19 20  1  0  0  0  0
 20 21  2  0  0  0  0
 22  3  1  0  0  0  0
 23  3  1  0  0  0  0
 24  5  1  0  0  0  0
 25  5  1  0  0  0  0
M  END
>  <CHROM.1>
53.24537111,-167.95480354,9.97841155,-175.77783697,-158.15750023,0.63051888
0.28751682,-1.01062918,3.09299393,-1.20647449,2.29017884

>  <Name>
1q8n_lig

>  <RI>
0

>  <Rbt.Current_Directory>
/home/itssahil/PROJECTS/Mol_Feturizer/New_Systems/rnas/1q8n

>  <Rbt.Executable>
rbdock ($Id: //depot/dev/client3/rdock/2013.1/src/exe/rbdock.cxx#4 $)

>  <Rbt.Library>
libRbt.so (2013.1, Build901 2013/11/27)

>  <Rbt.Parameter_File>
/export/apps/rDock/src/rDock_2013.1_src/data/scripts/dock_solv.prm

>  <Rbt.Receptor>
prm/blind_docking_40.prm

>  <SCORE>
-52.953

>  <SCORE.INTER>
-53.5773

>  <SCORE.INTER.CONST>
1

>  <SCORE.INTER.POLAR>
0

>  <SCORE.INTER.ROT>
5

>  <SCORE.INTER.SOLV>
10.251

>  <SCORE.INTER.VDW>
-46.0686

>  <SCORE.INTER.norm>
-2.14309

>  <SCORE.INTRA>
0.624333

>  <SCORE.INTRA.DIHEDRAL>
1.83718

>  <SCORE.INTRA.DIHEDRAL.0>
2.1627

>  <SCORE.INTRA.POLAR>
0

>  <SCORE.INTRA.POLAR.0>
0

>  <SCORE.INTRA.REPUL>
0

>  <SCORE.INTRA.REPUL.0>
0

>  <SCORE.INTRA.SOLV>
0.0265275

>  <SCORE.INTRA.SOLV.lig_0>
-5.95779

>  <SCORE.INTRA.VDW>
-0.307521

>  <SCORE.INTRA.VDW.0>
3.81702

>  <SCORE.INTRA.norm>
0.0249733

>  <SCORE.RESTR>
0

>  <SCORE.RESTR.CAVITY>
0

>  <SCORE.RESTR.norm>
0

>  <SCORE.SYSTEM>
0

>  <SCORE.SYSTEM.CONST>
0

>  <SCORE.SYSTEM.DIHEDRAL>
0

>  <SCORE.SYSTEM.SOLV>
0

>  <SCORE.SYSTEM.norm>
0

>  <SCORE.heavy>
25

>  <SCORE.norm>
-2.11812

>  <RMSD>
0.711

$$$$
1q8n_lig
 OpenBabel11021811413D
libRbt.so/2013.1/901 2013/11/27
 25 27  0  0  0  0  0  0  0  0999 V2000
    0.4661    0.9097   -1.6300 C   0  0  0  0  0  0  0  0  0  0  0  0
    0.4089    1.9733   -2.8673 C   0  0  0  0  0  0  0  0  0  0  0  0
    2.4724   -4.5900   -2.7020 N   0  0  0  0  0  0  0  0  0  0  0  0
   -0.2802    1.7517   -4.0123 C   0  0  0  0  0  0  0  0  0  0  0  0
   -1.1367    2.2348    3.9903 N   0  0  0  0  0  0  0  0  0  0  0  0
   -0.3015    2.7414   -5.1141 C   0  0  0  0  0  0  0  0  0  0  0  0
    0.3800    3.9029   -4.9866 C   0  0  0  0  0  0  0  0  0  0  0  0
    1.1159    4.1623   -3.7712 C   0  0  0  0  0  0  0  0  0  0  0  0
    1.1289    3.2613   -2.7857 C   0  0  0  0  0  0  0  0  0  0  0  0
    1.0163   -0.5963   -1.9291 C   0  0  0  0  0  0  0  0  0  0  0  0
    1.6099   -0.9042   -3.1009 C   0  0  0  0  0  0  0  0  0  0  0  0
    2.1181   -2.2736   -3.3911 C   0  0  0  0  0  0  0  0  0  0  0  0
    1.9951   -3.2601   -2.4632 C   0  0  0  0  0  0  0  0  0  0  0  0
    1.3501   -2.9379   -1.1762 C   0  0  0  0  0  0  0  0  0  0  0  0
    0.8966   -1.7004   -0.9322 C   0  0  0  0  0  0  0  0  0  0  0  0
   -0.0183    1.3248   -0.0997 C   0  0  0  0  0  0  0  0  0  0  0  0
    0.3676    0.4581    1.0672 C   0  0  0  0  0  0  0  0  0  0  0  0
    0.0180    0.7412    2.3250 C   0  0  0  0  0  0  0  0  0  0  0  0
   -0.7766    1.9352    2.6361 C   0  0  0  0  0  0  0  0  0  0  0  0
   -1.1545    2.7438    1.6243 C   0  0  0  0  0  0  0  0  0  0  0  0
   -0.7662    2.4366    0.2066 C   0  0  0  0  0  0  0  0  0  0  0  0
    3.4242   -4.8871   -3.7288 C   0  0  0  0  0  0  0  0  0  0  0  0
    2.0005   -5.6777   -1.9022 C   0  0  0  0  0  0  0  0  0  0  0  0
   -1.8910    3.4164    4.2957 C   0  0  0  0  0  0  0  0  0  0  0  0
   -0.7593    1.3606    5.0779 C   0  0  0  0  0  0  0  0  0  0  0  0
  1  2  1  0  0  0  0
  1 10  1  0  0  0  0
  1 16  1  0  0  0  0
  2  4  2  0  0  0  0
  2  9  1  0  0  0  0
  4  6  1  0  0  0  0
  6  7  2  0  0  0  0
  7  8  1  0  0  0  0
  8  9  2  0  0  0  0
 10 11  2  0  0  0  0
 10 15  1  0  0  0  0
 11 12  1  0  0  0  0
 12 13  2  0  0  0  0
 13  3  1  0  0  0  0
 13 14  1  0  0  0  0
 14 15  2  0  0  0  0
 16 17  2  0  0  0  0
 16 21  1  0  0  0  0
 17 18  1  0  0  0  0
 18 19  2  0  0  0  0
 19  5  1  0  0  0  0
 19 20  1  0  0  0  0
 20 21  2  0  0  0  0
 22  3  1  0  0  0  0
 23  3  1  0  0  0  0
 24  5  1  0  0  0  0
 25  5  1  0  0  0  0
M  END
>  <CHROM.1>
57.33840869,10.55194319,-164.46701938,18.17445244,178.76772393,0.55199769
0.28937547,-0.95834359,0.15335930,1.20654815,-0.93773753

>  <Name>
1q8n_lig

>  <RI>
0

>  <Rbt.Current_Directory>
/home/itssahil/PROJECTS/Mol_Feturizer/New_Systems/rnas/1q8n

>  <Rbt.Executable>
rbdock ($Id: //depot/dev/client3/rdock/2013.1/src/exe/rbdock.cxx#4 $)

>  <Rbt.Library>
libRbt.so (2013.1, Build901 2013/11/27)

>  <Rbt.Parameter_File>
/export/apps/rDock/src/rDock_2013.1_src/data/scripts/dock_solv.prm

>  <Rbt.Receptor>
prm/pocket_docking_6.prm

>  <SCORE>
-53.5489

>  <SCORE.INTER>
-54.1926

>  <SCORE.INTER.CONST>
1

>  <SCORE.INTER.POLAR>
0

>  <SCORE.INTER.ROT>
5

>  <SCORE.INTER.SOLV>
10.2523

>  <SCORE.INTER.VDW>
-46.4792

>  <SCORE.INTER.norm>
-2.1677

>  <SCORE.INTRA>
0.643681

>  <SCORE.INTRA.DIHEDRAL>
1.24987

>  <SCORE.INTRA.DIHEDRAL.0>
2.1627

>  <SCORE.INTRA.POLAR>
0

>  <SCORE.INTRA.POLAR.0>
0

>  <SCORE.INTRA.REPUL>
0

>  <SCORE.INTRA.REPUL.0>
0

>  <SCORE.INTRA.SOLV>
0.0256184

>  <SCORE.INTRA.SOLV.lig_0>
-5.95779

>  <SCORE.INTRA.VDW>
0.00593531

>  <SCORE.INTRA.VDW.0>
3.81702

>  <SCORE.INTRA.norm>
0.0257472

>  <SCORE.RESTR>
0

>  <SCORE.RESTR.CAVITY>
0

>  <SCORE.RESTR.norm>
0

>  <SCORE.SYSTEM>
0

>  <SCORE.SYSTEM.CONST>
0

>  <SCORE.SYSTEM.DIHEDRAL>
0

>  <SCORE.SYSTEM.SOLV>
0

>  <SCORE.SYSTEM.norm>
0

>  <SCORE.heavy>
25

>  <SCORE.norm>
-2.14196

>  <RMSD>
0.711

$$$$
1q8n_lig
 OpenBabel11021811403D
libRbt.so/2013.1/901 2013/11/27
 25 27  0  0  0  0  0  0  0  0999 V2000
    0.6103    0.8286   -1.6666 C   0  0  0  0  0  0  0  0  0  0  0  0
    0.5308    1.9526   -2.8480 C   0  0  0  0  0  0  0  0  0  0  0  0
    2.5979   -4.6087   -3.0474 N   0  0  0  0  0  0  0  0  0  0  0  0
   -0.1246    1.7621   -4.0181 C   0  0  0  0  0  0  0  0  0  0  0  0
   -1.1676    2.2430    3.8788 N   0  0  0  0  0  0  0  0  0  0  0  0
   -0.1677    2.8067   -5.0673 C   0  0  0  0  0  0  0  0  0  0  0  0
    0.4588    3.9884   -4.8645 C   0  0  0  0  0  0  0  0  0  0  0  0
    1.1579    4.2148   -3.6211 C   0  0  0  0  0  0  0  0  0  0  0  0
    1.1911    3.2645   -2.6836 C   0  0  0  0  0  0  0  0  0  0  0  0
    1.1556   -0.6599   -2.0501 C   0  0  0  0  0  0  0  0  0  0  0  0
    1.7801   -0.8953   -3.2227 C   0  0  0  0  0  0  0  0  0  0  0  0
    2.2844   -2.2478   -3.5895 C   0  0  0  0  0  0  0  0  0  0  0  0
    2.1257   -3.2926   -2.7336 C   0  0  0  0  0  0  0  0  0  0  0  0
    1.4466   -3.0500   -1.4468 C   0  0  0  0  0  0  0  0  0  0  0  0
    0.9972   -1.8268   -1.1333 C   0  0  0  0  0  0  0  0  0  0  0  0
    0.1532    1.1662   -0.1091 C   0  0  0  0  0  0  0  0  0  0  0  0
   -0.5400    2.4641    0.2017 C   0  0  0  0  0  0  0  0  0  0  0  0
   -0.9423    2.7924    1.4325 C   0  0  0  0  0  0  0  0  0  0  0  0
   -0.7222    1.8851    2.5647 C   0  0  0  0  0  0  0  0  0  0  0  0
   -0.0987    0.7095    2.3414 C   0  0  0  0  0  0  0  0  0  0  0  0
    0.3565    0.3290    0.9619 C   0  0  0  0  0  0  0  0  0  0  0  0
    2.0711   -5.7800   -2.4157 C   0  0  0  0  0  0  0  0  0  0  0  0
    3.6293   -4.7892   -4.0215 C   0  0  0  0  0  0  0  0  0  0  0  0
   -0.8732    1.3972    4.9997 C   0  0  0  0  0  0  0  0  0  0  0  0
   -1.9144    3.4583    4.1128 C   0  0  0  0  0  0  0  0  0  0  0  0
  1  2  1  0  0  0  0
  1 10  1  0  0  0  0
  1 16  1  0  0  0  0
  2  4  2  0  0  0  0
  2  9  1  0  0  0  0
  4  6  1  0  0  0  0
  6  7  2  0  0  0  0
  7  8  1  0  0  0  0
  8  9  2  0  0  0  0
 10 11  2  0  0  0  0
 10 15  1  0  0  0  0
 11 12  1  0  0  0  0
 12 13  2  0  0  0  0
 13  3  1  0  0  0  0
 13 14  1  0  0  0  0
 14 15  2  0  0  0  0
 16 17  2  0  0  0  0
 16 21  1  0  0  0  0
 17 18  1  0  0  0  0
 18 19  2  0  0  0  0
 19  5  1  0  0  0  0
 19 20  1  0  0  0  0
 20 21  2  0  0  0  0
 22  3  1  0  0  0  0
 23  3  1  0  0  0  0
 24  5  1  0  0  0  0
 25  5  1  0  0  0  0
M  END
>  <CHROM.1>
53.99885563,13.45018506,9.13329346,-158.37097680,-175.81775101,0.64230542
0.27444434,-1.07024090,0.08067850,1.20294843,-0.86888311

>  <Name>
1q8n_lig

>  <RI>
0

>  <Rbt.Current_Directory>
/home/itssahil/PROJECTS/Mol_Feturizer/New_Systems/rnas/1q8n

>  <Rbt.Executable>
rbdock ($Id: //depot/dev/client3/rdock/2013.1/src/exe/rbdock.cxx#4 $)

>  <Rbt.Library>
libRbt.so (2013.1, Build901 2013/11/27)

>  <Rbt.Parameter_File>
/export/apps/rDock/src/rDock_2013.1_src/data/scripts/dock_solv.prm

>  <Rbt.Receptor>
prm/blind_docking_60.prm

>  <SCORE>
-53.3507

>  <SCORE.INTER>
-53.9382

>  <SCORE.INTER.CONST>
1

>  <SCORE.INTER.POLAR>
0

>  <SCORE.INTER.ROT>
5

>  <SCORE.INTER.SOLV>
10.1713

>  <SCORE.INTER.VDW>
-46.2826

>  <SCORE.INTER.norm>
-2.15753

>  <SCORE.INTRA>
0.587444

>  <SCORE.INTRA.DIHEDRAL>
1.80358

>  <SCORE.INTRA.DIHEDRAL.0>
2.1627

>  <SCORE.INTRA.POLAR>
0

>  <SCORE.INTRA.POLAR.0>
0

>  <SCORE.INTRA.REPUL>
0

>  <SCORE.INTRA.REPUL.0>
0

>  <SCORE.INTRA.SOLV>
0.0257565

>  <SCORE.INTRA.SOLV.lig_0>
-5.95779

>  <SCORE.INTRA.VDW>
-0.327223

>  <SCORE.INTRA.VDW.0>
3.81702

>  <SCORE.INTRA.norm>
0.0234978

>  <SCORE.RESTR>
0

>  <SCORE.RESTR.CAVITY>
0

>  <SCORE.RESTR.norm>
0

>  <SCORE.SYSTEM>
0

>  <SCORE.SYSTEM.CONST>
0

>  <SCORE.SYSTEM.DIHEDRAL>
0

>  <SCORE.SYSTEM.SOLV>
0

>  <SCORE.SYSTEM.norm>
0

>  <SCORE.heavy>
25

>  <SCORE.norm>
-2.13403

>  <RMSD>
0.714

$$$$
1q8n_lig
 OpenBabel11021811403D
libRbt.so/2013.1/901 2013/11/27
 25 27  0  0  0  0  0  0  0  0999 V2000
    0.6374    0.8467   -1.6387 C   0  0  0  0  0  0  0  0  0  0  0  0
    0.5709    1.9713   -2.8204 C   0  0  0  0  0  0  0  0  0  0  0  0
    2.5969   -4.6031   -3.0106 N   0  0  0  0  0  0  0  0  0  0  0  0
    1.2090    3.1643   -2.7537 C   0  0  0  0  0  0  0  0  0  0  0  0
   -1.1672    2.2651    3.8970 N   0  0  0  0  0  0  0  0  0  0  0  0
    1.1179    4.1601   -3.8464 C   0  0  0  0  0  0  0  0  0  0  0  0
    0.3822    3.8834   -4.9473 C   0  0  0  0  0  0  0  0  0  0  0  0
   -0.3009    2.6144   -5.0419 C   0  0  0  0  0  0  0  0  0  0  0  0
   -0.2125    1.7256   -4.0492 C   0  0  0  0  0  0  0  0  0  0  0  0
    1.1746   -0.6454   -2.0199 C   0  0  0  0  0  0  0  0  0  0  0  0
    1.7367   -0.9010   -3.2195 C   0  0  0  0  0  0  0  0  0  0  0  0
    2.2326   -2.2570   -3.5846 C   0  0  0  0  0  0  0  0  0  0  0  0
    2.1303   -3.2843   -2.6995 C   0  0  0  0  0  0  0  0  0  0  0  0
    1.5199   -3.0194   -1.3829 C   0  0  0  0  0  0  0  0  0  0  0  0
    1.0770   -1.7933   -1.0713 C   0  0  0  0  0  0  0  0  0  0  0  0
    0.1750    1.1871   -0.0834 C   0  0  0  0  0  0  0  0  0  0  0  0
   -0.5672    2.4608    0.2139 C   0  0  0  0  0  0  0  0  0  0  0  0
   -0.9760    2.7897    1.4423 C   0  0  0  0  0  0  0  0  0  0  0  0
   -0.7146    1.9072    2.5854 C   0  0  0  0  0  0  0  0  0  0  0  0
   -0.0464    0.7542    2.3743 C   0  0  0  0  0  0  0  0  0  0  0  0
    0.4166    0.3732    0.9976 C   0  0  0  0  0  0  0  0  0  0  0  0
    3.6100   -4.8430   -3.9926 C   0  0  0  0  0  0  0  0  0  0  0  0
    2.0509   -5.7375   -2.3322 C   0  0  0  0  0  0  0  0  0  0  0  0
   -0.8599    1.4307    5.0230 C   0  0  0  0  0  0  0  0  0  0  0  0
   -1.9345    3.4691    4.1234 C   0  0  0  0  0  0  0  0  0  0  0  0
  1  2  1  0  0  0  0
  1 10  1  0  0  0  0
  1 16  1  0  0  0  0
  2  4  2  0  0  0  0
  2  9  1  0  0  0  0
  4  6  1  0  0  0  0
  6  7  2  0  0  0  0
  7  8  1  0  0  0  0
  8  9  2  0  0  0  0
 10 11  2  0  0  0  0
 10 15  1  0  0  0  0
 11 12  1  0  0  0  0
 12 13  2  0  0  0  0
 13  3  1  0  0  0  0
 13 14  1  0  0  0  0
 14 15  2  0  0  0  0
 16 17  2  0  0  0  0
 16 21  1  0  0  0  0
 17 18  1  0  0  0  0
 18 19  2  0  0  0  0
 19  5  1  0  0  0  0
 19 20  1  0  0  0  0
 20 21  2  0  0  0  0
 22  3  1  0  0  0  0
 23  3  1  0  0  0  0
 24  5  1  0  0  0  0
 25  5  1  0  0  0  0
M  END
>  <CHROM.1>
-123.03408722,9.73658793,11.94028361,23.93226532,-177.23658269,0.63633566
0.26685619,-1.06140363,0.13797410,1.20130983,-0.91902997

>  <Name>
1q8n_lig

>  <RI>
0

>  <Rbt.Current_Directory>
/home/itssahil/PROJECTS/Mol_Feturizer/New_Systems/rnas/1q8n

>  <Rbt.Executable>
rbdock ($Id: //depot/dev/client3/rdock/2013.1/src/exe/rbdock.cxx#4 $)

>  <Rbt.Library>
libRbt.so (2013.1, Build901 2013/11/27)

>  <Rbt.Parameter_File>
/export/apps/rDock/src/rDock_2013.1_src/data/scripts/dock_solv.prm

>  <Rbt.Receptor>
prm/pocket_docking_3.prm

>  <SCORE>
-53.9254

>  <SCORE.INTER>
-54.5767

>  <SCORE.INTER.CONST>
1

>  <SCORE.INTER.POLAR>
0

>  <SCORE.INTER.ROT>
5

>  <SCORE.INTER.SOLV>
10.1168

>  <SCORE.INTER.VDW>
-46.6901

>  <SCORE.INTER.norm>
-2.18307

>  <SCORE.INTRA>
0.651349

>  <SCORE.INTRA.DIHEDRAL>
2.13268

>  <SCORE.INTRA.DIHEDRAL.0>
2.1627

>  <SCORE.INTRA.POLAR>
0

>  <SCORE.INTRA.POLAR.0>
0

>  <SCORE.INTRA.REPUL>
0

>  <SCORE.INTRA.REPUL.0>
0

>  <SCORE.INTRA.SOLV>
0.0223256

>  <SCORE.INTRA.SOLV.lig_0>
-5.95779

>  <SCORE.INTRA.VDW>
-0.426156

>  <SCORE.INTRA.VDW.0>
3.81702

>  <SCORE.INTRA.norm>
0.0260539

>  <SCORE.RESTR>
0

>  <SCORE.RESTR.CAVITY>
0

>  <SCORE.RESTR.norm>
0

>  <SCORE.SYSTEM>
0

>  <SCORE.SYSTEM.CONST>
0

>  <SCORE.SYSTEM.DIHEDRAL>
0

>  <SCORE.SYSTEM.SOLV>
0

>  <SCORE.SYSTEM.norm>
0

>  <SCORE.heavy>
25

>  <SCORE.norm>
-2.15702

>  <RMSD>
0.714

$$$$
1q8n_lig
 OpenBabel11021811403D
libRbt.so/2013.1/901 2013/11/27
 25 27  0  0  0  0  0  0  0  0999 V2000
    0.6229    0.8428   -1.5783 C   0  0  0  0  0  0  0  0  0  0  0  0
    0.6019    2.0039   -2.7259 C   0  0  0  0  0  0  0  0  0  0  0  0
   -1.1696    2.2887    3.9097 N   0  0  0  0  0  0  0  0  0  0  0  0
    1.1890    3.2152   -2.5745 C   0  0  0  0  0  0  0  0  0  0  0  0
    2.5576   -4.6546   -2.9742 N   0  0  0  0  0  0  0  0  0  0  0  0
    1.1418    4.2437   -3.6393 C   0  0  0  0  0  0  0  0  0  0  0  0
    0.4996    3.9793   -4.8002 C   0  0  0  0  0  0  0  0  0  0  0  0
   -0.1274    2.6914   -4.9850 C   0  0  0  0  0  0  0  0  0  0  0  0
   -0.0795    1.7731   -4.0168 C   0  0  0  0  0  0  0  0  0  0  0  0
    0.1328    1.2340   -0.0727 C   0  0  0  0  0  0  0  0  0  0  0  0
    0.4263    0.4488    0.9845 C   0  0  0  0  0  0  0  0  0  0  0  0
   -0.0129    0.7903    2.3660 C   0  0  0  0  0  0  0  0  0  0  0  0
   -0.7297    1.9228    2.5958 C   0  0  0  0  0  0  0  0  0  0  0  0
   -1.0564    2.7925    1.4499 C   0  0  0  0  0  0  0  0  0  0  0  0
   -0.6548    2.4692    0.2127 C   0  0  0  0  0  0  0  0  0  0  0  0
    1.1264   -0.7018   -1.9091 C   0  0  0  0  0  0  0  0  0  0  0  0
    1.7813   -1.0081   -3.2278 C   0  0  0  0  0  0  0  0  0  0  0  0
    2.2178   -2.2281   -3.5523 C   0  0  0  0  0  0  0  0  0  0  0  0
    2.0759   -3.3524   -2.6198 C   0  0  0  0  0  0  0  0  0  0  0  0
    1.4894   -3.1329   -1.4246 C   0  0  0  0  0  0  0  0  0  0  0  0
    0.9963   -1.7654   -1.0482 C   0  0  0  0  0  0  0  0  0  0  0  0
   -1.9315    3.4747    4.1574 C   0  0  0  0  0  0  0  0  0  0  0  0
   -0.8524    1.4595    5.0309 C   0  0  0  0  0  0  0  0  0  0  0  0
    3.5907   -4.8025   -3.9587 C   0  0  0  0  0  0  0  0  0  0  0  0
    2.0262   -5.8461   -2.3518 C   0  0  0  0  0  0  0  0  0  0  0  0
  1  2  1  0  0  0  0
  1 10  1  0  0  0  0
  1 16  1  0  0  0  0
  2  4  2  0  0  0  0
  2  9  1  0  0  0  0
  4  6  1  0  0  0  0
  6  7  2  0  0  0  0
  7  8  1  0  0  0  0
  8  9  2  0  0  0  0
 10 11  2  0  0  0  0
 10 15  1  0  0  0  0
 11 12  1  0  0  0  0
 12 13  2  0  0  0  0
 13  3  1  0  0  0  0
 13 14  1  0  0  0  0
 14 15  2  0  0  0  0
 16 17  2  0  0  0  0
 16 21  1  0  0  0  0
 17 18  1  0  0  0  0
 18 19  2  0  0  0  0
 19  5  1  0  0  0  0
 19 20  1  0  0  0  0
 20 21  2  0  0  0  0
 22  3  1  0  0  0  0
 23  3  1  0  0  0  0
 24  5  1  0  0  0  0
 25  5  1  0  0  0  0
M  END
>  <CHROM.1>
52.27321891,-163.42630784,9.67779171,-179.59500632,23.41922136,0.63652252
0.27528317,-1.01911148,3.08162752,-1.20695930,2.28062325

>  <Name>
1q8n_lig

>  <RI>
0

>  <Rbt.Current_Directory>
/home/itssahil/PROJECTS/Mol_Feturizer/New_Systems/rnas/1q8n

>  <Rbt.Executable>
rbdock ($Id: //depot/dev/client3/rdock/2013.1/src/exe/rbdock.cxx#4 $)

>  <Rbt.Library>
libRbt.so (2013.1, Build901 2013/11/27)

>  <Rbt.Parameter_File>
/export/apps/rDock/src/rDock_2013.1_src/data/scripts/dock_solv.prm

>  <Rbt.Receptor>
prm/blind_docking_60.prm

>  <SCORE>
-52.9599

>  <SCORE.INTER>
-53.5105

>  <SCORE.INTER.CONST>
1

>  <SCORE.INTER.POLAR>
0

>  <SCORE.INTER.ROT>
5

>  <SCORE.INTER.SOLV>
10.247

>  <SCORE.INTER.VDW>
-46.0227

>  <SCORE.INTER.norm>
-2.14042

>  <SCORE.INTRA>
0.550602

>  <SCORE.INTRA.DIHEDRAL>
2.01859

>  <SCORE.INTRA.DIHEDRAL.0>
2.1627

>  <SCORE.INTRA.POLAR>
0

>  <SCORE.INTRA.POLAR.0>
0

>  <SCORE.INTRA.REPUL>
0

>  <SCORE.INTRA.REPUL.0>
0

>  <SCORE.INTRA.SOLV>
0.0253375

>  <SCORE.INTRA.SOLV.lig_0>
-5.95779

>  <SCORE.INTRA.VDW>
-0.471364

>  <SCORE.INTRA.VDW.0>
3.81702

>  <SCORE.INTRA.norm>
0.0220241

>  <SCORE.RESTR>
0

>  <SCORE.RESTR.CAVITY>
0

>  <SCORE.RESTR.norm>
0

>  <SCORE.SYSTEM>
0

>  <SCORE.SYSTEM.CONST>
0

>  <SCORE.SYSTEM.DIHEDRAL>
0

>  <SCORE.SYSTEM.SOLV>
0

>  <SCORE.SYSTEM.norm>
0

>  <SCORE.heavy>
25

>  <SCORE.norm>
-2.1184

>  <RMSD>
0.716

$$$$
1q8n_lig
 OpenBabel11021811403D
libRbt.so/2013.1/901 2013/11/27
 25 27  0  0  0  0  0  0  0  0999 V2000
    0.6118    0.8263   -1.6023 C   0  0  0  0  0  0  0  0  0  0  0  0
    0.5851    1.9901   -2.7471 C   0  0  0  0  0  0  0  0  0  0  0  0
   -1.1750    2.2536    3.8924 N   0  0  0  0  0  0  0  0  0  0  0  0
    1.1997    3.1892   -2.6085 C   0  0  0  0  0  0  0  0  0  0  0  0
    2.5596   -4.6620   -3.0156 N   0  0  0  0  0  0  0  0  0  0  0  0
    1.1462    4.2207   -3.6701 C   0  0  0  0  0  0  0  0  0  0  0  0
    0.4700    3.9715   -4.8149 C   0  0  0  0  0  0  0  0  0  0  0  0
   -0.1869    2.6968   -4.9861 C   0  0  0  0  0  0  0  0  0  0  0  0
   -0.1330    1.7756   -4.0209 C   0  0  0  0  0  0  0  0  0  0  0  0
    0.1234    1.2125   -0.0949 C   0  0  0  0  0  0  0  0  0  0  0  0
    0.4473    0.4419    0.9642 C   0  0  0  0  0  0  0  0  0  0  0  0
    0.0102    0.7790    2.3473 C   0  0  0  0  0  0  0  0  0  0  0  0
   -0.7359    1.8925    2.5769 C   0  0  0  0  0  0  0  0  0  0  0  0
   -1.0961    2.7461    1.4290 C   0  0  0  0  0  0  0  0  0  0  0  0
   -0.6958    2.4269    0.1903 C   0  0  0  0  0  0  0  0  0  0  0  0
    1.1194   -0.7159   -1.9378 C   0  0  0  0  0  0  0  0  0  0  0  0
    1.7666   -1.0185   -3.2611 C   0  0  0  0  0  0  0  0  0  0  0  0
    2.2060   -2.2365   -3.5895 C   0  0  0  0  0  0  0  0  0  0  0  0
    2.0750   -3.3620   -2.6569 C   0  0  0  0  0  0  0  0  0  0  0  0
    1.4956   -3.1459   -1.4577 C   0  0  0  0  0  0  0  0  0  0  0  0
    0.9994   -1.7807   -1.0769 C   0  0  0  0  0  0  0  0  0  0  0  0
   -0.8905    1.4479    5.0406 C   0  0  0  0  0  0  0  0  0  0  0  0
   -1.9239    3.4548    4.0958 C   0  0  0  0  0  0  0  0  0  0  0  0
    3.5918   -4.8045   -4.0018 C   0  0  0  0  0  0  0  0  0  0  0  0
    2.0320   -5.8566   -2.3960 C   0  0  0  0  0  0  0  0  0  0  0  0
  1  2  1  0  0  0  0
  1 10  1  0  0  0  0
  1 16  1  0  0  0  0
  2  4  2  0  0  0  0
  2  9  1  0  0  0  0
  4  6  1  0  0  0  0
  6  7  2  0  0  0  0
  7  8  1  0  0  0  0
  8  9  2  0  0  0  0
 10 11  2  0  0  0  0
 10 15  1  0  0  0  0
 11 12  1  0  0  0  0
 12 13  2  0  0  0  0
 13  3  1  0  0  0  0
 13 14  1  0  0  0  0
 14 15  2  0  0  0  0
 16 17  2  0  0  0  0
 16 21  1  0  0  0  0
 17 18  1  0  0  0  0
 18 19  2  0  0  0  0
 19  5  1  0  0  0  0
 19 20  1  0  0  0  0
 20 21  2  0  0  0  0
 22  3  1  0  0  0  0
 23  3  1  0  0  0  0
 24  5  1  0  0  0  0
 25  5  1  0  0  0  0
M  END
>  <CHROM.1>
54.13995541,-161.89270528,9.38119259,-1.84446876,23.76689038,0.62626012,0.25959656
-1.04534057,3.07131613,-1.20540980,2.27210680

>  <Name>
1q8n_lig

>  <RI>
0

>  <Rbt.Current_Directory>
/home/itssahil/PROJECTS/Mol_Feturizer/New_Systems/rnas/1q8n

>  <Rbt.Executable>
rbdock ($Id: //depot/dev/client3/rdock/2013.1/src/exe/rbdock.cxx#4 $)

>  <Rbt.Library>
libRbt.so (2013.1, Build901 2013/11/27)

>  <Rbt.Parameter_File>
/export/apps/rDock/src/rDock_2013.1_src/data/scripts/dock_solv.prm

>  <Rbt.Receptor>
prm/blind_docking_80.prm

>  <SCORE>
-52.8783

>  <SCORE.INTER>
-53.4036

>  <SCORE.INTER.CONST>
1

>  <SCORE.INTER.POLAR>
0

>  <SCORE.INTER.ROT>
5

>  <SCORE.INTER.SOLV>
10.2307

>  <SCORE.INTER.VDW>
-45.946

>  <SCORE.INTER.norm>
-2.13614

>  <SCORE.INTRA>
0.525295

>  <SCORE.INTRA.DIHEDRAL>
2.08818

>  <SCORE.INTRA.DIHEDRAL.0>
2.1627

>  <SCORE.INTRA.POLAR>
0

>  <SCORE.INTRA.POLAR.0>
0

>  <SCORE.INTRA.REPUL>
0

>  <SCORE.INTRA.REPUL.0>
0

>  <SCORE.INTRA.SOLV>
0.0218633

>  <SCORE.INTRA.SOLV.lig_0>
-5.95779

>  <SCORE.INTRA.VDW>
-0.529724

>  <SCORE.INTRA.VDW.0>
3.81702

>  <SCORE.INTRA.norm>
0.0210118

>  <SCORE.RESTR>
0

>  <SCORE.RESTR.CAVITY>
0

>  <SCORE.RESTR.norm>
0

>  <SCORE.SYSTEM>
0

>  <SCORE.SYSTEM.CONST>
0

>  <SCORE.SYSTEM.DIHEDRAL>
0

>  <SCORE.SYSTEM.SOLV>
0

>  <SCORE.SYSTEM.norm>
0

>  <SCORE.heavy>
25

>  <SCORE.norm>
-2.11513

>  <RMSD>
0.716

$$$$
1q8n_lig
 OpenBabel11021811403D
libRbt.so/2013.1/901 2013/11/27
 25 27  0  0  0  0  0  0  0  0999 V2000
    0.6505    0.8406   -1.6539 C   0  0  0  0  0  0  0  0  0  0  0  0
    0.5839    1.9685   -2.8324 C   0  0  0  0  0  0  0  0  0  0  0  0
    2.6081   -4.6059   -3.0416 N   0  0  0  0  0  0  0  0  0  0  0  0
    1.2481    3.1478   -2.7769 C   0  0  0  0  0  0  0  0  0  0  0  0
   -1.1451    2.2493    3.8872 N   0  0  0  0  0  0  0  0  0  0  0  0
    1.1560    4.1472   -3.8661 C   0  0  0  0  0  0  0  0  0  0  0  0
    0.3927    3.8880   -4.9524 C   0  0  0  0  0  0  0  0  0  0  0  0
   -0.3186    2.6337   -5.0350 C   0  0  0  0  0  0  0  0  0  0  0  0
   -0.2290    1.7415   -4.0455 C   0  0  0  0  0  0  0  0  0  0  0  0
    1.1875   -0.6505   -2.0394 C   0  0  0  0  0  0  0  0  0  0  0  0
    1.7978   -0.8909   -3.2184 C   0  0  0  0  0  0  0  0  0  0  0  0
    2.2943   -2.2457   -3.5870 C   0  0  0  0  0  0  0  0  0  0  0  0
    2.1429   -3.2876   -2.7263 C   0  0  0  0  0  0  0  0  0  0  0  0
    1.4794   -3.0395   -1.4324 C   0  0  0  0  0  0  0  0  0  0  0  0
    1.0368   -1.8142   -1.1173 C   0  0  0  0  0  0  0  0  0  0  0  0
    0.1886    1.1767   -0.0975 C   0  0  0  0  0  0  0  0  0  0  0  0
   -0.5099    2.4722    0.2115 C   0  0  0  0  0  0  0  0  0  0  0  0
   -0.9161    2.7993    1.4413 C   0  0  0  0  0  0  0  0  0  0  0  0
   -0.6954    1.8928    2.5742 C   0  0  0  0  0  0  0  0  0  0  0  0
   -0.0673    0.7194    2.3524 C   0  0  0  0  0  0  0  0  0  0  0  0
    0.3924    0.3404    0.9741 C   0  0  0  0  0  0  0  0  0  0  0  0
    3.6074   -4.8453   -4.0378 C   0  0  0  0  0  0  0  0  0  0  0  0
    2.0748   -5.7402   -2.3531 C   0  0  0  0  0  0  0  0  0  0  0  0
   -0.8429    1.4091    5.0102 C   0  0  0  0  0  0  0  0  0  0  0  0
   -1.9042    3.4576    4.1180 C   0  0  0  0  0  0  0  0  0  0  0  0
  1  2  1  0  0  0  0
  1 10  1  0  0  0  0
  1 16  1  0  0  0  0
  2  4  2  0  0  0  0
  2  9  1  0  0  0  0
  4  6  1  0  0  0  0
  6  7  2  0  0  0  0
  7  8  1  0  0  0  0
  8  9  2  0  0  0  0
 10 11  2  0  0  0  0
 10 15  1  0  0  0  0
 11 12  1  0  0  0  0
 12 13  2  0  0  0  0
 13  3  1  0  0  0  0
 13 14  1  0  0  0  0
 14 15  2  0  0  0  0
 16 17  2  0  0  0  0
 16 21  1  0  0  0  0
 17 18  1  0  0  0  0
 18 19  2  0  0  0  0
 19  5  1  0  0  0  0
 19 20  1  0  0  0  0
 20 21  2  0  0  0  0
 22  3  1  0  0  0  0
 23  3  1  0  0  0  0
 24  5  1  0  0  0  0
 25  5  1  0  0  0  0
M  END
>  <CHROM.1>
-121.38502913,12.44089167,9.75789242,20.35268279,-175.41113839,0.65057340
0.26058901,-1.07783154,0.13239678,1.20256934,-0.91131957

>  <Name>
1q8n_lig

>  <RI>
0

>  <Rbt.Current_Directory>
/home/itssahil/PROJECTS/Mol_Feturizer/New_Systems/rnas/1q8n

>  <Rbt.Executable>
rbdock ($Id: //depot/dev/client3/rdock/2013.1/src/exe/rbdock.cxx#4 $)

>  <Rbt.Library>
libRbt.so (2013.1, Build901 2013/11/27)

>  <Rbt.Parameter_File>
/export/apps/rDock/src/rDock_2013.1_src/data/scripts/dock_solv.prm

>  <Rbt.Receptor>
prm/pocket_docking_4.prm

>  <SCORE>
-54.0822

>  <SCORE.INTER>
-54.6195

>  <SCORE.INTER.CONST>
1

>  <SCORE.INTER.POLAR>
0

>  <SCORE.INTER.ROT>
5

>  <SCORE.INTER.SOLV>
10.0834

>  <SCORE.INTER.VDW>
-46.7075

>  <SCORE.INTER.norm>
-2.18478

>  <SCORE.INTRA>
0.537306

>  <SCORE.INTRA.DIHEDRAL>
1.62668

>  <SCORE.INTRA.DIHEDRAL.0>
2.1627

>  <SCORE.INTRA.POLAR>
0

>  <SCORE.INTRA.POLAR.0>
0

>  <SCORE.INTRA.REPUL>
0

>  <SCORE.INTRA.REPUL.0>
0

>  <SCORE.INTRA.SOLV>
0.0196082

>  <SCORE.INTRA.SOLV.lig_0>
-5.95779

>  <SCORE.INTRA.VDW>
-0.285839

>  <SCORE.INTRA.VDW.0>
3.81702

>  <SCORE.INTRA.norm>
0.0214922

>  <SCORE.RESTR>
0

>  <SCORE.RESTR.CAVITY>
0

>  <SCORE.RESTR.norm>
0

>  <SCORE.SYSTEM>
0

>  <SCORE.SYSTEM.CONST>
0

>  <SCORE.SYSTEM.DIHEDRAL>
0

>  <SCORE.SYSTEM.SOLV>
0

>  <SCORE.SYSTEM.norm>
0

>  <SCORE.heavy>
25

>  <SCORE.norm>
-2.16329

>  <RMSD>
0.716

$$$$
1q8n_lig
 OpenBabel11021811403D
libRbt.so/2013.1/901 2013/11/27
 25 27  0  0  0  0  0  0  0  0999 V2000
    0.6064    0.8547   -1.5875 C   0  0  0  0  0  0  0  0  0  0  0  0
    0.5786    2.0081   -2.7427 C   0  0  0  0  0  0  0  0  0  0  0  0
   -1.1684    2.2946    3.9079 N   0  0  0  0  0  0  0  0  0  0  0  0
    1.1914    3.2093   -2.6145 C   0  0  0  0  0  0  0  0  0  0  0  0
    2.5567   -4.6453   -2.9509 N   0  0  0  0  0  0  0  0  0  0  0  0
    1.1370    4.2312   -3.6853 C   0  0  0  0  0  0  0  0  0  0  0  0
    0.4619    3.9708   -4.8282 C   0  0  0  0  0  0  0  0  0  0  0  0
   -0.1931    2.6936   -4.9883 C   0  0  0  0  0  0  0  0  0  0  0  0
   -0.1384    1.7812   -4.0148 C   0  0  0  0  0  0  0  0  0  0  0  0
    0.1191    1.2544   -0.0831 C   0  0  0  0  0  0  0  0  0  0  0  0
   -0.5661    2.3929    0.1507 C   0  0  0  0  0  0  0  0  0  0  0  0
   -1.0189    2.7737    1.5174 C   0  0  0  0  0  0  0  0  0  0  0  0
   -0.7489    1.9659    2.5776 C   0  0  0  0  0  0  0  0  0  0  0  0
   -0.0025    0.7166    2.3370 C   0  0  0  0  0  0  0  0  0  0  0  0
    0.3992    0.3899    1.1007 C   0  0  0  0  0  0  0  0  0  0  0  0
    1.1139   -0.6904   -1.9094 C   0  0  0  0  0  0  0  0  0  0  0  0
    1.7773   -1.0008   -3.2229 C   0  0  0  0  0  0  0  0  0  0  0  0
    2.2174   -2.2214   -3.5402 C   0  0  0  0  0  0  0  0  0  0  0  0
    2.0712   -3.3424   -2.6043 C   0  0  0  0  0  0  0  0  0  0  0  0
    1.4770   -3.1193   -1.4137 C   0  0  0  0  0  0  0  0  0  0  0  0
    0.9798   -1.7510   -1.0454 C   0  0  0  0  0  0  0  0  0  0  0  0
   -0.8694    1.4596    5.0312 C   0  0  0  0  0  0  0  0  0  0  0  0
   -1.9116    3.4917    4.1523 C   0  0  0  0  0  0  0  0  0  0  0  0
    2.0259   -5.8121   -2.3065 C   0  0  0  0  0  0  0  0  0  0  0  0
    3.5816   -4.8214   -3.9548 C   0  0  0  0  0  0  0  0  0  0  0  0
  1  2  1  0  0  0  0
  1 10  1  0  0  0  0
  1 16  1  0  0  0  0
  2  4  2  0  0  0  0
  2  9  1  0  0  0  0
  4  6  1  0  0  0  0
  6  7  2  0  0  0  0
  7  8  1  0  0  0  0
  8  9  2  0  0  0  0
 10 11  2  0  0  0  0
 10 15  1  0  0  0  0
 11 12  1  0  0  0  0
 12 13  2  0  0  0  0
 13  3  1  0  0  0  0
 13 14  1  0  0  0  0
 14 15  2  0  0  0  0
 16 17  2  0  0  0  0
 16 21  1  0  0  0  0
 17 18  1  0  0  0  0
 18 19  2  0  0  0  0
 19  5  1  0  0  0  0
 19 20  1  0  0  0  0
 20 21  2  0  0  0  0
 22  3  1  0  0  0  0
 23  3  1  0  0  0  0
 24  5  1  0  0  0  0
 25  5  1  0  0  0  0
M  END
>  <CHROM.1>
54.03022652,14.73449621,10.22533857,-178.99183141,-157.72342742,0.62943525
0.27313090,-1.01732483,3.06493010,-1.20704117,2.26577553

>  <Name>
1q8n_lig

>  <RI>
0

>  <Rbt.Current_Directory>
/home/itssahil/PROJECTS/Mol_Feturizer/New_Systems/rnas/1q8n

>  <Rbt.Executable>
rbdock ($Id: //depot/dev/client3/rdock/2013.1/src/exe/rbdock.cxx#4 $)

>  <Rbt.Library>
libRbt.so (2013.1, Build901 2013/11/27)

>  <Rbt.Parameter_File>
/export/apps/rDock/src/rDock_2013.1_src/data/scripts/dock_solv.prm

>  <Rbt.Receptor>
prm/blind_docking_20.prm

>  <SCORE>
-53.1262

>  <SCORE.INTER>
-53.6482

>  <SCORE.INTER.CONST>
1

>  <SCORE.INTER.POLAR>
0

>  <SCORE.INTER.ROT>
5

>  <SCORE.INTER.SOLV>
10.2494

>  <SCORE.INTER.VDW>
-46.1153

>  <SCORE.INTER.norm>
-2.14593

>  <SCORE.INTRA>
0.522052

>  <SCORE.INTRA.DIHEDRAL>
1.83792

>  <SCORE.INTRA.DIHEDRAL.0>
2.1627

>  <SCORE.INTRA.POLAR>
0

>  <SCORE.INTRA.POLAR.0>
0

>  <SCORE.INTRA.REPUL>
0

>  <SCORE.INTRA.REPUL.0>
0

>  <SCORE.INTRA.SOLV>
0.0243904

>  <SCORE.INTRA.SOLV.lig_0>
-5.95779

>  <SCORE.INTRA.VDW>
-0.409103

>  <SCORE.INTRA.VDW.0>
3.81702

>  <SCORE.INTRA.norm>
0.0208821

>  <SCORE.RESTR>
0

>  <SCORE.RESTR.CAVITY>
0

>  <SCORE.RESTR.norm>
0

>  <SCORE.SYSTEM>
0

>  <SCORE.SYSTEM.CONST>
0

>  <SCORE.SYSTEM.DIHEDRAL>
0

>  <SCORE.SYSTEM.SOLV>
0

>  <SCORE.SYSTEM.norm>
0

>  <SCORE.heavy>
25

>  <SCORE.norm>
-2.12505

>  <RMSD>
0.717

$$$$
1q8n_lig
 OpenBabel11021811403D
libRbt.so/2013.1/901 2013/11/27
 25 27  0  0  0  0  0  0  0  0999 V2000
    0.6050    0.8268   -1.6371 C   0  0  0  0  0  0  0  0  0  0  0  0
    0.5181    1.9413   -2.8270 C   0  0  0  0  0  0  0  0  0  0  0  0
    2.6023   -4.6158   -2.9825 N   0  0  0  0  0  0  0  0  0  0  0  0
   -0.1377    1.7385   -3.9947 C   0  0  0  0  0  0  0  0  0  0  0  0
   -1.1564    2.2796    3.9036 N   0  0  0  0  0  0  0  0  0  0  0  0
   -0.1876    2.7747   -5.0518 C   0  0  0  0  0  0  0  0  0  0  0  0
    0.4330    3.9612   -4.8588 C   0  0  0  0  0  0  0  0  0  0  0  0
    1.1324    4.2008   -3.6181 C   0  0  0  0  0  0  0  0  0  0  0  0
    1.1718    3.2578   -2.6734 C   0  0  0  0  0  0  0  0  0  0  0  0
    1.1527   -0.6633   -2.0110 C   0  0  0  0  0  0  0  0  0  0  0  0
    1.7342   -0.9162   -3.2019 C   0  0  0  0  0  0  0  0  0  0  0  0
    2.2399   -2.2703   -3.5603 C   0  0  0  0  0  0  0  0  0  0  0  0
    2.1269   -3.2987   -2.6777 C   0  0  0  0  0  0  0  0  0  0  0  0
    1.4953   -3.0368   -1.3706 C   0  0  0  0  0  0  0  0  0  0  0  0
    1.0438   -1.8123   -1.0650 C   0  0  0  0  0  0  0  0  0  0  0  0
    0.1528    1.1754   -0.0806 C   0  0  0  0  0  0  0  0  0  0  0  0
   -0.5458    2.4724    0.2221 C   0  0  0  0  0  0  0  0  0  0  0  0
   -0.9445    2.8092    1.4517 C   0  0  0  0  0  0  0  0  0  0  0  0
   -0.7148    1.9128    2.5907 C   0  0  0  0  0  0  0  0  0  0  0  0
   -0.0863    0.7386    2.3748 C   0  0  0  0  0  0  0  0  0  0  0  0
    0.3650    0.3485    0.9967 C   0  0  0  0  0  0  0  0  0  0  0  0
    3.6202   -4.8531   -3.9603 C   0  0  0  0  0  0  0  0  0  0  0  0
    2.0608   -5.7510   -2.3019 C   0  0  0  0  0  0  0  0  0  0  0  0
   -0.8375    1.4543    5.0331 C   0  0  0  0  0  0  0  0  0  0  0  0
   -1.9240    3.4838    4.1278 C   0  0  0  0  0  0  0  0  0  0  0  0
  1  2  1  0  0  0  0
  1 10  1  0  0  0  0
  1 16  1  0  0  0  0
  2  4  2  0  0  0  0
  2  9  1  0  0  0  0
  4  6  1  0  0  0  0
  6  7  2  0  0  0  0
  7  8  1  0  0  0  0
  8  9  2  0  0  0  0
 10 11  2  0  0  0  0
 10 15  1  0  0  0  0
 11 12  1  0  0  0  0
 12 13  2  0  0  0  0
 13  3  1  0  0  0  0
 13 14  1  0  0  0  0
 14 15  2  0  0  0  0
 16 17  2  0  0  0  0
 16 21  1  0  0  0  0
 17 18  1  0  0  0  0
 18 19  2  0  0  0  0
 19  5  1  0  0  0  0
 19 20  1  0  0  0  0
 20 21  2  0  0  0  0
 22  3  1  0  0  0  0
 23  3  1  0  0  0  0
 24  5  1  0  0  0  0
 25  5  1  0  0  0  0
M  END
>  <CHROM.1>
53.79269468,11.24871465,9.29026250,23.16921247,-174.97485831,0.63942193,0.27658663
-1.03474236,0.09687818,1.20364132,-0.89287958

>  <Name>
1q8n_lig

>  <RI>
0

>  <Rbt.Current_Directory>
/home/itssahil/PROJECTS/Mol_Feturizer/New_Systems/rnas/1q8n

>  <Rbt.Executable>
rbdock ($Id: //depot/dev/client3/rdock/2013.1/src/exe/rbdock.cxx#4 $)

>  <Rbt.Library>
libRbt.so (2013.1, Build901 2013/11/27)

>  <Rbt.Parameter_File>
/export/apps/rDock/src/rDock_2013.1_src/data/scripts/dock_solv.prm

>  <Rbt.Receptor>
prm/pocket_docking_5.prm

>  <SCORE>
-53.3986

>  <SCORE.INTER>
-54.0506

>  <SCORE.INTER.CONST>
1

>  <SCORE.INTER.POLAR>
0

>  <SCORE.INTER.ROT>
5

>  <SCORE.INTER.SOLV>
10.2123

>  <SCORE.INTER.VDW>
-46.3711

>  <SCORE.INTER.norm>
-2.16202

>  <SCORE.INTRA>
0.652039

>  <SCORE.INTRA.DIHEDRAL>
2.07617

>  <SCORE.INTRA.DIHEDRAL.0>
2.1627

>  <SCORE.INTRA.POLAR>
0

>  <SCORE.INTRA.POLAR.0>
0

>  <SCORE.INTRA.REPUL>
0

>  <SCORE.INTRA.REPUL.0>
0

>  <SCORE.INTRA.SOLV>
0.0271074

>  <SCORE.INTRA.SOLV.lig_0>
-5.95779

>  <SCORE.INTRA.VDW>
-0.399602

>  <SCORE.INTRA.VDW.0>
3.81702

>  <SCORE.INTRA.norm>
0.0260815

>  <SCORE.RESTR>
0

>  <SCORE.RESTR.CAVITY>
0

>  <SCORE.RESTR.norm>
0

>  <SCORE.SYSTEM>
0

>  <SCORE.SYSTEM.CONST>
0

>  <SCORE.SYSTEM.DIHEDRAL>
0

>  <SCORE.SYSTEM.SOLV>
0

>  <SCORE.SYSTEM.norm>
0

>  <SCORE.heavy>
25

>  <SCORE.norm>
-2.13594

>  <RMSD>
0.717

$$$$
1q8n_lig
 OpenBabel11021811403D
libRbt.so/2013.1/901 2013/11/27
 25 27  0  0  0  0  0  0  0  0999 V2000
    0.6388    0.8557   -1.6304 C   0  0  0  0  0  0  0  0  0  0  0  0
    0.5662    1.9817   -2.8104 C   0  0  0  0  0  0  0  0  0  0  0  0
    2.6073   -4.5876   -3.0148 N   0  0  0  0  0  0  0  0  0  0  0  0
    1.1994    3.1772   -2.7428 C   0  0  0  0  0  0  0  0  0  0  0  0
   -1.1519    2.2639    3.9125 N   0  0  0  0  0  0  0  0  0  0  0  0
    1.1028    4.1742   -3.8340 C   0  0  0  0  0  0  0  0  0  0  0  0
    0.3670    3.8959   -4.9344 C   0  0  0  0  0  0  0  0  0  0  0  0
   -0.3109    2.6242   -5.0299 C   0  0  0  0  0  0  0  0  0  0  0  0
   -0.2177    1.7344   -4.0386 C   0  0  0  0  0  0  0  0  0  0  0  0
    1.1787   -0.6345   -2.0150 C   0  0  0  0  0  0  0  0  0  0  0  0
    1.7811   -0.8765   -3.1977 C   0  0  0  0  0  0  0  0  0  0  0  0
    2.2801   -2.2305   -3.5656 C   0  0  0  0  0  0  0  0  0  0  0  0
    2.1392   -3.2701   -2.7004 C   0  0  0  0  0  0  0  0  0  0  0  0
    1.4845   -3.0204   -1.4023 C   0  0  0  0  0  0  0  0  0  0  0  0
    1.0395   -1.7957   -1.0879 C   0  0  0  0  0  0  0  0  0  0  0  0
    0.1800    1.1930   -0.0733 C   0  0  0  0  0  0  0  0  0  0  0  0
   -0.5540    2.4702    0.2296 C   0  0  0  0  0  0  0  0  0  0  0  0
   -0.9596    2.7969    1.4597 C   0  0  0  0  0  0  0  0  0  0  0  0
   -0.7027    1.9083    2.5991 C   0  0  0  0  0  0  0  0  0  0  0  0
   -0.0419    0.7519    2.3829 C   0  0  0  0  0  0  0  0  0  0  0  0
    0.4174    0.3734    1.0043 C   0  0  0  0  0  0  0  0  0  0  0  0
    3.6188   -4.8241   -3.9994 C   0  0  0  0  0  0  0  0  0  0  0  0
    2.0644   -5.7241   -2.3374 C   0  0  0  0  0  0  0  0  0  0  0  0
   -0.8413    1.4278    5.0363 C   0  0  0  0  0  0  0  0  0  0  0  0
   -1.9187    3.4674    4.1429 C   0  0  0  0  0  0  0  0  0  0  0  0
  1  2  1  0  0  0  0
  1 10  1  0  0  0  0
  1 16  1  0  0  0  0
  2  4  2  0  0  0  0
  2  9  1  0  0  0  0
  4  6  1  0  0  0  0
  6  7  2  0  0  0  0
  7  8  1  0  0  0  0
  8  9  2  0  0  0  0
 10 11  2  0  0  0  0
 10 15  1  0  0  0  0
 11 12  1  0  0  0  0
 12 13  2  0  0  0  0
 13  3  1  0  0  0  0
 13 14  1  0  0  0  0
 14 15  2  0  0  0  0
 16 17  2  0  0  0  0
 16 21  1  0  0  0  0
 17 18  1  0  0  0  0
 18 19  2  0  0  0  0
 19  5  1  0  0  0  0
 19 20  1  0  0  0  0
 20 21  2  0  0  0  0
 22  3  1  0  0  0  0
 23  3  1  0  0  0  0
 24  5  1  0  0  0  0
 25  5  1  0  0  0  0
M  END
>  <CHROM.1>
-123.16823874,12.12949107,11.40618282,21.60299992,-176.83229650,0.64092535
0.27535245,-1.05387160,0.14385094,1.20134732,-0.92298930

>  <Name>
1q8n_lig

>  <RI>
0

>  <Rbt.Current_Directory>
/home/itssahil/PROJECTS/Mol_Feturizer/New_Systems/rnas/1q8n

>  <Rbt.Executable>
rbdock ($Id: //depot/dev/client3/rdock/2013.1/src/exe/rbdock.cxx#4 $)

>  <Rbt.Library>
libRbt.so (2013.1, Build901 2013/11/27)

>  <Rbt.Parameter_File>
/export/apps/rDock/src/rDock_2013.1_src/data/scripts/dock_solv.prm

>  <Rbt.Receptor>
prm/pocket_docking_3.prm

>  <SCORE>
-54.0008

>  <SCORE.INTER>
-54.5635

>  <SCORE.INTER.CONST>
1

>  <SCORE.INTER.POLAR>
0

>  <SCORE.INTER.ROT>
5

>  <SCORE.INTER.SOLV>
10.1105

>  <SCORE.INTER.VDW>
-46.6792

>  <SCORE.INTER.norm>
-2.18254

>  <SCORE.INTRA>
0.562665

>  <SCORE.INTRA.DIHEDRAL>
1.7706

>  <SCORE.INTRA.DIHEDRAL.0>
2.1627

>  <SCORE.INTRA.POLAR>
0

>  <SCORE.INTRA.POLAR.0>
0

>  <SCORE.INTRA.REPUL>
0

>  <SCORE.INTRA.REPUL.0>
0

>  <SCORE.INTRA.SOLV>
0.0215833

>  <SCORE.INTRA.SOLV.lig_0>
-5.95779

>  <SCORE.INTRA.VDW>
-0.333427

>  <SCORE.INTRA.VDW.0>
3.81702

>  <SCORE.INTRA.norm>
0.0225066

>  <SCORE.RESTR>
0

>  <SCORE.RESTR.CAVITY>
0

>  <SCORE.RESTR.norm>
0

>  <SCORE.SYSTEM>
0

>  <SCORE.SYSTEM.CONST>
0

>  <SCORE.SYSTEM.DIHEDRAL>
0

>  <SCORE.SYSTEM.SOLV>
0

>  <SCORE.SYSTEM.norm>
0

>  <SCORE.heavy>
25

>  <SCORE.norm>
-2.16003

>  <RMSD>
0.718

$$$$
1q8n_lig
 OpenBabel11021811403D
libRbt.so/2013.1/901 2013/11/27
 25 27  0  0  0  0  0  0  0  0999 V2000
    0.5887    0.7836   -1.6955 C   0  0  0  0  0  0  0  0  0  0  0  0
    0.4720    1.8929   -2.8877 C   0  0  0  0  0  0  0  0  0  0  0  0
    2.6453   -4.6351   -3.0483 N   0  0  0  0  0  0  0  0  0  0  0  0
   -0.2709    1.7130   -4.0060 C   0  0  0  0  0  0  0  0  0  0  0  0
   -1.1487    2.2113    3.8593 N   0  0  0  0  0  0  0  0  0  0  0  0
   -0.3452    2.7434   -5.0674 C   0  0  0  0  0  0  0  0  0  0  0  0
    0.3411    3.9009   -4.9288 C   0  0  0  0  0  0  0  0  0  0  0  0
    1.1341    4.1159   -3.7410 C   0  0  0  0  0  0  0  0  0  0  0  0
    1.1945    3.1785   -2.7919 C   0  0  0  0  0  0  0  0  0  0  0  0
    1.1527   -0.7000   -2.0714 C   0  0  0  0  0  0  0  0  0  0  0  0
    1.7525   -0.9407   -3.2557 C   0  0  0  0  0  0  0  0  0  0  0  0
    2.2733   -2.2887   -3.6158 C   0  0  0  0  0  0  0  0  0  0  0  0
    2.1558   -3.3236   -2.7416 C   0  0  0  0  0  0  0  0  0  0  0  0
    1.5042   -3.0750   -1.4417 C   0  0  0  0  0  0  0  0  0  0  0  0
    1.0394   -1.8560   -1.1344 C   0  0  0  0  0  0  0  0  0  0  0  0
    0.1502    1.1308   -0.1348 C   0  0  0  0  0  0  0  0  0  0  0  0
   -0.6923    2.3429    0.1528 C   0  0  0  0  0  0  0  0  0  0  0  0
   -1.0873    2.6731    1.3854 C   0  0  0  0  0  0  0  0  0  0  0  0
   -0.7102    1.8535    2.5429 C   0  0  0  0  0  0  0  0  0  0  0  0
    0.0507    0.7577    2.3407 C   0  0  0  0  0  0  0  0  0  0  0  0
    0.4994    0.3758    0.9595 C   0  0  0  0  0  0  0  0  0  0  0  0
    3.7000   -4.8558   -3.9904 C   0  0  0  0  0  0  0  0  0  0  0  0
    2.0809   -5.7815   -2.4061 C   0  0  0  0  0  0  0  0  0  0  0  0
   -1.8929    3.4192    4.0725 C   0  0  0  0  0  0  0  0  0  0  0  0
   -0.8621    1.3707    4.9999 C   0  0  0  0  0  0  0  0  0  0  0  0
  1  2  1  0  0  0  0
  1 10  1  0  0  0  0
  1 16  1  0  0  0  0
  2  4  2  0  0  0  0
  2  9  1  0  0  0  0
  4  6  1  0  0  0  0
  6  7  2  0  0  0  0
  7  8  1  0  0  0  0
  8  9  2  0  0  0  0
 10 11  2  0  0  0  0
 10 15  1  0  0  0  0
 11 12  1  0  0  0  0
 12 13  2  0  0  0  0
 13  3  1  0  0  0  0
 13 14  1  0  0  0  0
 14 15  2  0  0  0  0
 16 17  2  0  0  0  0
 16 21  1  0  0  0  0
 17 18  1  0  0  0  0
 18 19  2  0  0  0  0
 19  5  1  0  0  0  0
 19 20  1  0  0  0  0
 20 21  2  0  0  0  0
 22  3  1  0  0  0  0
 23  3  1  0  0  0  0
 24  5  1  0  0  0  0
 25  5  1  0  0  0  0
M  END
>  <CHROM.1>
58.53345928,12.87207492,15.93875551,24.66763936,-3.81983772,0.63260103,0.23051076
-1.09359978,0.14420446,1.19566977,-0.93712636

>  <Name>
1q8n_lig

>  <RI>
0

>  <Rbt.Current_Directory>
/home/itssahil/PROJECTS/Mol_Feturizer/New_Systems/rnas/1q8n

>  <Rbt.Executable>
rbdock ($Id: //depot/dev/client3/rdock/2013.1/src/exe/rbdock.cxx#4 $)

>  <Rbt.Library>
libRbt.so (2013.1, Build901 2013/11/27)

>  <Rbt.Parameter_File>
/export/apps/rDock/src/rDock_2013.1_src/data/scripts/dock_solv.prm

>  <Rbt.Receptor>
prm/blind_docking_20.prm

>  <SCORE>
-53.283

>  <SCORE.INTER>
-53.8196

>  <SCORE.INTER.CONST>
1

>  <SCORE.INTER.POLAR>
0

>  <SCORE.INTER.ROT>
5

>  <SCORE.INTER.SOLV>
10.1755

>  <SCORE.INTER.VDW>
-46.2049

>  <SCORE.INTER.norm>
-2.15279

>  <SCORE.INTRA>
0.536592

>  <SCORE.INTRA.DIHEDRAL>
2.28306

>  <SCORE.INTRA.DIHEDRAL.0>
2.1627

>  <SCORE.INTRA.POLAR>
0

>  <SCORE.INTRA.POLAR.0>
0

>  <SCORE.INTRA.REPUL>
0

>  <SCORE.INTRA.REPUL.0>
0

>  <SCORE.INTRA.SOLV>
0.015537

>  <SCORE.INTRA.SOLV.lig_0>
-5.95779

>  <SCORE.INTRA.VDW>
-0.612705

>  <SCORE.INTRA.VDW.0>
3.81702

>  <SCORE.INTRA.norm>
0.0214637

>  <SCORE.RESTR>
0

>  <SCORE.RESTR.CAVITY>
0

>  <SCORE.RESTR.norm>
0

>  <SCORE.SYSTEM>
0

>  <SCORE.SYSTEM.CONST>
0

>  <SCORE.SYSTEM.DIHEDRAL>
0

>  <SCORE.SYSTEM.SOLV>
0

>  <SCORE.SYSTEM.norm>
0

>  <SCORE.heavy>
25

>  <SCORE.norm>
-2.13132

>  <RMSD>
0.719

$$$$
1q8n_lig
 OpenBabel11021811403D
libRbt.so/2013.1/901 2013/11/27
 25 27  0  0  0  0  0  0  0  0999 V2000
    0.6034    0.8125   -1.6675 C   0  0  0  0  0  0  0  0  0  0  0  0
    0.5080    1.9323   -2.8517 C   0  0  0  0  0  0  0  0  0  0  0  0
    2.6066   -4.6192   -3.0481 N   0  0  0  0  0  0  0  0  0  0  0  0
   -0.2019    1.7558   -3.9918 C   0  0  0  0  0  0  0  0  0  0  0  0
   -1.1542    2.2195    3.8863 N   0  0  0  0  0  0  0  0  0  0  0  0
   -0.2576    2.7958   -5.0450 C   0  0  0  0  0  0  0  0  0  0  0  0
    0.4125    3.9588   -4.8764 C   0  0  0  0  0  0  0  0  0  0  0  0
    1.1701    4.1702   -3.6652 C   0  0  0  0  0  0  0  0  0  0  0  0
    1.2142    3.2241   -2.7238 C   0  0  0  0  0  0  0  0  0  0  0  0
    1.1528   -0.6746   -2.0510 C   0  0  0  0  0  0  0  0  0  0  0  0
    1.7476   -0.9158   -3.2377 C   0  0  0  0  0  0  0  0  0  0  0  0
    2.2551   -2.2670   -3.6048 C   0  0  0  0  0  0  0  0  0  0  0  0
    2.1300   -3.3045   -2.7346 C   0  0  0  0  0  0  0  0  0  0  0  0
    1.4837   -3.0555   -1.4322 C   0  0  0  0  0  0  0  0  0  0  0  0
    1.0309   -1.8335   -1.1187 C   0  0  0  0  0  0  0  0  0  0  0  0
    0.1580    1.1528   -0.1072 C   0  0  0  0  0  0  0  0  0  0  0  0
   -0.6595    2.3806    0.1859 C   0  0  0  0  0  0  0  0  0  0  0  0
   -1.0588    2.7064    1.4183 C   0  0  0  0  0  0  0  0  0  0  0  0
   -0.7113    1.8660    2.5701 C   0  0  0  0  0  0  0  0  0  0  0  0
    0.0264    0.7554    2.3630 C   0  0  0  0  0  0  0  0  0  0  0  0
    0.4796    0.3783    0.9819 C   0  0  0  0  0  0  0  0  0  0  0  0
    2.0806   -5.7924   -2.4193 C   0  0  0  0  0  0  0  0  0  0  0  0
    3.6417   -4.7961   -4.0189 C   0  0  0  0  0  0  0  0  0  0  0  0
   -1.9119    3.4191    4.0987 C   0  0  0  0  0  0  0  0  0  0  0  0
   -0.8586    1.3827    5.0273 C   0  0  0  0  0  0  0  0  0  0  0  0
  1  2  1  0  0  0  0
  1 10  1  0  0  0  0
  1 16  1  0  0  0  0
  2  4  2  0  0  0  0
  2  9  1  0  0  0  0
  4  6  1  0  0  0  0
  6  7  2  0  0  0  0
  7  8  1  0  0  0  0
  8  9  2  0  0  0  0
 10 11  2  0  0  0  0
 10 15  1  0  0  0  0
 11 12  1  0  0  0  0
 12 13  2  0  0  0  0
 13  3  1  0  0  0  0
 13 14  1  0  0  0  0
 14 15  2  0  0  0  0
 16 17  2  0  0  0  0
 16 21  1  0  0  0  0
 17 18  1  0  0  0  0
 18 19  2  0  0  0  0
 19  5  1  0  0  0  0
 19 20  1  0  0  0  0
 20 21  2  0  0  0  0
 22  3  1  0  0  0  0
 23  3  1  0  0  0  0
 24  5  1  0  0  0  0
 25  5  1  0  0  0  0
M  END
>  <CHROM.1>
56.80471818,12.28549415,15.26557463,-156.46657336,-1.70753080,0.63835682
0.25599203,-1.07082563,0.11377943,1.20068015,-0.90088416

>  <Name>
1q8n_lig

>  <RI>
0

>  <Rbt.Current_Directory>
/home/itssahil/PROJECTS/Mol_Feturizer/New_Systems/rnas/1q8n

>  <Rbt.Executable>
rbdock ($Id: //depot/dev/client3/rdock/2013.1/src/exe/rbdock.cxx#4 $)

>  <Rbt.Library>
libRbt.so (2013.1, Build901 2013/11/27)

>  <Rbt.Parameter_File>
/export/apps/rDock/src/rDock_2013.1_src/data/scripts/dock_solv.prm

>  <Rbt.Receptor>
prm/pocket_docking_3.prm

>  <SCORE>
-53.3371

>  <SCORE.INTER>
-53.8691

>  <SCORE.INTER.CONST>
1

>  <SCORE.INTER.POLAR>
0

>  <SCORE.INTER.ROT>
5

>  <SCORE.INTER.SOLV>
10.1813

>  <SCORE.INTER.VDW>
-46.2398

>  <SCORE.INTER.norm>
-2.15476

>  <SCORE.INTRA>
0.531989

>  <SCORE.INTRA.DIHEDRAL>
2.04862

>  <SCORE.INTRA.DIHEDRAL.0>
2.1627

>  <SCORE.INTRA.POLAR>
0

>  <SCORE.INTRA.POLAR.0>
0

>  <SCORE.INTRA.REPUL>
0

>  <SCORE.INTRA.REPUL.0>
0

>  <SCORE.INTRA.SOLV>
0.0187714

>  <SCORE.INTRA.SOLV.lig_0>
-5.95779

>  <SCORE.INTRA.VDW>
-0.501704

>  <SCORE.INTRA.VDW.0>
3.81702

>  <SCORE.INTRA.norm>
0.0212796

>  <SCORE.RESTR>
0

>  <SCORE.RESTR.CAVITY>
0

>  <SCORE.RESTR.norm>
0

>  <SCORE.SYSTEM>
0

>  <SCORE.SYSTEM.CONST>
0

>  <SCORE.SYSTEM.DIHEDRAL>
0

>  <SCORE.SYSTEM.SOLV>
0

>  <SCORE.SYSTEM.norm>
0

>  <SCORE.heavy>
25

>  <SCORE.norm>
-2.13348

>  <RMSD>
0.719

$$$$
1q8n_lig
 OpenBabel11021811403D
libRbt.so/2013.1/901 2013/11/27
 25 27  0  0  0  0  0  0  0  0999 V2000
    0.5685    0.8335   -1.5921 C   0  0  0  0  0  0  0  0  0  0  0  0
    0.5189    1.9834   -2.7499 C   0  0  0  0  0  0  0  0  0  0  0  0
   -1.1677    2.3105    3.9058 N   0  0  0  0  0  0  0  0  0  0  0  0
   -0.0570    1.7994   -3.9621 C   0  0  0  0  0  0  0  0  0  0  0  0
    2.5473   -4.6544   -2.9632 N   0  0  0  0  0  0  0  0  0  0  0  0
   -0.0753    2.8679   -4.9877 C   0  0  0  0  0  0  0  0  0  0  0  0
    0.4936    4.0656   -4.7196 C   0  0  0  0  0  0  0  0  0  0  0  0
    1.1074    4.2853   -3.4308 C   0  0  0  0  0  0  0  0  0  0  0  0
    1.1190    3.3134   -2.5152 C   0  0  0  0  0  0  0  0  0  0  0  0
    0.0937    1.2332   -0.0837 C   0  0  0  0  0  0  0  0  0  0  0  0
    0.3836    0.4454    0.9725 C   0  0  0  0  0  0  0  0  0  0  0  0
   -0.0417    0.7946    2.3564 C   0  0  0  0  0  0  0  0  0  0  0  0
   -0.7416    1.9370    2.5895 C   0  0  0  0  0  0  0  0  0  0  0  0
   -1.0641    2.8096    1.4446 C   0  0  0  0  0  0  0  0  0  0  0  0
   -0.6751    2.4793    0.2052 C   0  0  0  0  0  0  0  0  0  0  0  0
    1.0855   -0.7082   -1.9152 C   0  0  0  0  0  0  0  0  0  0  0  0
    1.7211   -1.0207   -3.2418 C   0  0  0  0  0  0  0  0  0  0  0  0
    2.1672   -2.2387   -3.5610 C   0  0  0  0  0  0  0  0  0  0  0  0
    2.0556   -3.3545   -2.6142 C   0  0  0  0  0  0  0  0  0  0  0  0
    1.4872   -3.1293   -1.4114 C   0  0  0  0  0  0  0  0  0  0  0  0
    0.9836   -1.7640   -1.0410 C   0  0  0  0  0  0  0  0  0  0  0  0
   -0.8576    1.5242    5.0608 C   0  0  0  0  0  0  0  0  0  0  0  0
   -1.9293    3.5048    4.1031 C   0  0  0  0  0  0  0  0  0  0  0  0
    3.5842   -4.7982   -3.9442 C   0  0  0  0  0  0  0  0  0  0  0  0
    2.0223   -5.8476   -2.3386 C   0  0  0  0  0  0  0  0  0  0  0  0
  1  2  1  0  0  0  0
  1 10  1  0  0  0  0
  1 16  1  0  0  0  0
  2  4  2  0  0  0  0
  2  9  1  0  0  0  0
  4  6  1  0  0  0  0
  6  7  2  0  0  0  0
  7  8  1  0  0  0  0
  8  9  2  0  0  0  0
 10 11  2  0  0  0  0
 10 15  1  0  0  0  0
 11 12  1  0  0  0  0
 12 13  2  0  0  0  0
 13  3  1  0  0  0  0
 13 14  1  0  0  0  0
 14 15  2  0  0  0  0
 16 17  2  0  0  0  0
 16 21  1  0  0  0  0
 17 18  1  0  0  0  0
 18 19  2  0  0  0  0
 19  5  1  0  0  0  0
 19 20  1  0  0  0  0
 20 21  2  0  0  0  0
 22  3  1  0  0  0  0
 23  3  1  0  0  0  0
 24  5  1  0  0  0  0
 25  5  1  0  0  0  0
M  END
>  <CHROM.1>
-130.34344005,-164.98092107,9.41959711,1.53179261,24.69922900,0.61603262
0.29700236,-1.00640339,3.10603632,-1.20870655,2.28796461

>  <Name>
1q8n_lig

>  <RI>
0

>  <Rbt.Current_Directory>
/home/itssahil/PROJECTS/Mol_Feturizer/New_Systems/rnas/1q8n

>  <Rbt.Executable>
rbdock ($Id: //depot/dev/client3/rdock/2013.1/src/exe/rbdock.cxx#4 $)

>  <Rbt.Library>
libRbt.so (2013.1, Build901 2013/11/27)

>  <Rbt.Parameter_File>
/export/apps/rDock/src/rDock_2013.1_src/data/scripts/dock_solv.prm

>  <Rbt.Receptor>
prm/pocket_docking_3.prm

>  <SCORE>
-51.9533

>  <SCORE.INTER>
-52.5953

>  <SCORE.INTER.CONST>
1

>  <SCORE.INTER.POLAR>
0

>  <SCORE.INTER.ROT>
5

>  <SCORE.INTER.SOLV>
10.3841

>  <SCORE.INTER.VDW>
-45.4582

>  <SCORE.INTER.norm>
-2.10381

>  <SCORE.INTRA>
0.641941

>  <SCORE.INTRA.DIHEDRAL>
2.23999

>  <SCORE.INTRA.DIHEDRAL.0>
2.1627

>  <SCORE.INTRA.POLAR>
0

>  <SCORE.INTRA.POLAR.0>
0

>  <SCORE.INTRA.REPUL>
0

>  <SCORE.INTRA.REPUL.0>
0

>  <SCORE.INTRA.SOLV>
0.030572

>  <SCORE.INTRA.SOLV.lig_0>
-5.95779

>  <SCORE.INTRA.VDW>
-0.493337

>  <SCORE.INTRA.VDW.0>
3.81702

>  <SCORE.INTRA.norm>
0.0256777

>  <SCORE.RESTR>
0

>  <SCORE.RESTR.CAVITY>
0

>  <SCORE.RESTR.norm>
0

>  <SCORE.SYSTEM>
0

>  <SCORE.SYSTEM.CONST>
0

>  <SCORE.SYSTEM.DIHEDRAL>
0

>  <SCORE.SYSTEM.SOLV>
0

>  <SCORE.SYSTEM.norm>
0

>  <SCORE.heavy>
25

>  <SCORE.norm>
-2.07813

>  <RMSD>
0.719

$$$$
1q8n_lig
 OpenBabel11021811413D
libRbt.so/2013.1/901 2013/11/27
 25 27  0  0  0  0  0  0  0  0999 V2000
    0.5941    0.8172   -1.6297 C   0  0  0  0  0  0  0  0  0  0  0  0
    0.5140    1.9352   -2.8168 C   0  0  0  0  0  0  0  0  0  0  0  0
    2.5834   -4.6263   -2.9833 N   0  0  0  0  0  0  0  0  0  0  0  0
   -0.1340    1.7353   -3.9894 C   0  0  0  0  0  0  0  0  0  0  0  0
   -1.2021    2.2442    3.9066 N   0  0  0  0  0  0  0  0  0  0  0  0
   -0.1778    2.7747   -5.0437 C   0  0  0  0  0  0  0  0  0  0  0  0
    0.4405    3.9611   -4.8431 C   0  0  0  0  0  0  0  0  0  0  0  0
    1.1316    4.1975   -3.5971 C   0  0  0  0  0  0  0  0  0  0  0  0
    1.1656    3.2518   -2.6550 C   0  0  0  0  0  0  0  0  0  0  0  0
    1.1395   -0.6732   -2.0059 C   0  0  0  0  0  0  0  0  0  0  0  0
    1.7120   -0.9274   -3.2009 C   0  0  0  0  0  0  0  0  0  0  0  0
    2.2156   -2.2818   -3.5613 C   0  0  0  0  0  0  0  0  0  0  0  0
    2.1097   -3.3091   -2.6766 C   0  0  0  0  0  0  0  0  0  0  0  0
    1.4879   -3.0458   -1.3651 C   0  0  0  0  0  0  0  0  0  0  0  0
    1.0383   -1.8211   -1.0576 C   0  0  0  0  0  0  0  0  0  0  0  0
    0.1372    1.1625   -0.0739 C   0  0  0  0  0  0  0  0  0  0  0  0
   -0.6684    2.4000    0.2113 C   0  0  0  0  0  0  0  0  0  0  0  0
   -1.0761    2.7304    1.4397 C   0  0  0  0  0  0  0  0  0  0  0  0
   -0.7503    1.8857    2.5948 C   0  0  0  0  0  0  0  0  0  0  0  0
   -0.0240    0.7664    2.3947 C   0  0  0  0  0  0  0  0  0  0  0  0
    0.4385    0.3840    1.0182 C   0  0  0  0  0  0  0  0  0  0  0  0
    2.0530   -5.7954   -2.3504 C   0  0  0  0  0  0  0  0  0  0  0  0
    3.6198   -4.8104   -3.9514 C   0  0  0  0  0  0  0  0  0  0  0  0
   -0.9244    1.3924    5.0272 C   0  0  0  0  0  0  0  0  0  0  0  0
   -1.9387    3.4661    4.1385 C   0  0  0  0  0  0  0  0  0  0  0  0
  1  2  1  0  0  0  0
  1 10  1  0  0  0  0
  1 16  1  0  0  0  0
  2  4  2  0  0  0  0
  2  9  1  0  0  0  0
  4  6  1  0  0  0  0
  6  7  2  0  0  0  0
  7  8  1  0  0  0  0
  8  9  2  0  0  0  0
 10 11  2  0  0  0  0
 10 15  1  0  0  0  0
 11 12  1  0  0  0  0
 12 13  2  0  0  0  0
 13  3  1  0  0  0  0
 13 14  1  0  0  0  0
 14 15  2  0  0  0  0
 16 17  2  0  0  0  0
 16 21  1  0  0  0  0
 17 18  1  0  0  0  0
 18 19  2  0  0  0  0
 19  5  1  0  0  0  0
 19 20  1  0  0  0  0
 20 21  2  0  0  0  0
 22  3  1  0  0  0  0
 23  3  1  0  0  0  0
 24  5  1  0  0  0  0
 25  5  1  0  0  0  0
M  END
>  <CHROM.1>
53.54019087,10.55166430,14.82448549,-155.14881915,177.72661172,0.62167723
0.26259741,-1.03101644,0.09015444,1.20005577,-0.88199834

>  <Name>
1q8n_lig

>  <RI>
0

>  <Rbt.Current_Directory>
/home/itssahil/PROJECTS/Mol_Feturizer/New_Systems/rnas/1q8n

>  <Rbt.Executable>
rbdock ($Id: //depot/dev/client3/rdock/2013.1/src/exe/rbdock.cxx#4 $)

>  <Rbt.Library>
libRbt.so (2013.1, Build901 2013/11/27)

>  <Rbt.Parameter_File>
/export/apps/rDock/src/rDock_2013.1_src/data/scripts/dock_solv.prm

>  <Rbt.Receptor>
prm/pocket_docking_7.prm

>  <SCORE>
-53.1845

>  <SCORE.INTER>
-53.8647

>  <SCORE.INTER.CONST>
1

>  <SCORE.INTER.POLAR>
0

>  <SCORE.INTER.ROT>
5

>  <SCORE.INTER.SOLV>
10.1947

>  <SCORE.INTER.VDW>
-46.2413

>  <SCORE.INTER.norm>
-2.15459

>  <SCORE.INTRA>
0.680182

>  <SCORE.INTRA.DIHEDRAL>
2.27761

>  <SCORE.INTRA.DIHEDRAL.0>
2.1627

>  <SCORE.INTRA.POLAR>
0

>  <SCORE.INTRA.POLAR.0>
0

>  <SCORE.INTRA.REPUL>
0

>  <SCORE.INTRA.REPUL.0>
0

>  <SCORE.INTRA.SOLV>
0.0244909

>  <SCORE.INTRA.SOLV.lig_0>
-5.95779

>  <SCORE.INTRA.VDW>
-0.470871

>  <SCORE.INTRA.VDW.0>
3.81702

>  <SCORE.INTRA.norm>
0.0272073

>  <SCORE.RESTR>
0

>  <SCORE.RESTR.CAVITY>
0

>  <SCORE.RESTR.norm>
0

>  <SCORE.SYSTEM>
0

>  <SCORE.SYSTEM.CONST>
0

>  <SCORE.SYSTEM.DIHEDRAL>
0

>  <SCORE.SYSTEM.SOLV>
0

>  <SCORE.SYSTEM.norm>
0

>  <SCORE.heavy>
25

>  <SCORE.norm>
-2.12738

>  <RMSD>
0.720

$$$$
1q8n_lig
 OpenBabel11021811403D
libRbt.so/2013.1/901 2013/11/27
 25 27  0  0  0  0  0  0  0  0999 V2000
    0.5930    0.8398   -1.6149 C   0  0  0  0  0  0  0  0  0  0  0  0
    0.5097    1.9587   -2.8009 C   0  0  0  0  0  0  0  0  0  0  0  0
    2.5562   -4.6096   -2.9832 N   0  0  0  0  0  0  0  0  0  0  0  0
   -0.1505    1.7637   -3.9675 C   0  0  0  0  0  0  0  0  0  0  0  0
   -1.1669    2.2688    3.9325 N   0  0  0  0  0  0  0  0  0  0  0  0
   -0.1969    2.8037   -5.0211 C   0  0  0  0  0  0  0  0  0  0  0  0
    0.4314    3.9857   -4.8259 C   0  0  0  0  0  0  0  0  0  0  0  0
    1.1356    4.2170   -3.5863 C   0  0  0  0  0  0  0  0  0  0  0  0
    1.1717    3.2707   -2.6448 C   0  0  0  0  0  0  0  0  0  0  0  0
    1.1314   -0.6522   -1.9951 C   0  0  0  0  0  0  0  0  0  0  0  0
    1.7164   -0.9025   -3.1848 C   0  0  0  0  0  0  0  0  0  0  0  0
    2.2137   -2.2582   -3.5488 C   0  0  0  0  0  0  0  0  0  0  0  0
    2.0891   -3.2908   -2.6728 C   0  0  0  0  0  0  0  0  0  0  0  0
    1.4535   -3.0319   -1.3670 C   0  0  0  0  0  0  0  0  0  0  0  0
    1.0097   -1.8059   -1.0563 C   0  0  0  0  0  0  0  0  0  0  0  0
    0.1463    1.1857   -0.0563 C   0  0  0  0  0  0  0  0  0  0  0  0
   -0.6584    2.4227    0.2336 C   0  0  0  0  0  0  0  0  0  0  0  0
   -1.0580    2.7535    1.4645 C   0  0  0  0  0  0  0  0  0  0  0  0
   -0.7237    1.9098    2.6179 C   0  0  0  0  0  0  0  0  0  0  0  0
    0.0023    0.7910    2.4136 C   0  0  0  0  0  0  0  0  0  0  0  0
    0.4557    0.4082    1.0342 C   0  0  0  0  0  0  0  0  0  0  0  0
    2.0515   -5.7741   -2.3215 C   0  0  0  0  0  0  0  0  0  0  0  0
    3.5594   -4.7998   -3.9844 C   0  0  0  0  0  0  0  0  0  0  0  0
   -0.8636    1.4281    5.0548 C   0  0  0  0  0  0  0  0  0  0  0  0
   -1.9203    3.4802    4.1655 C   0  0  0  0  0  0  0  0  0  0  0  0
  1  2  1  0  0  0  0
  1 10  1  0  0  0  0
  1 16  1  0  0  0  0
  2  4  2  0  0  0  0
  2  9  1  0  0  0  0
  4  6  1  0  0  0  0
  6  7  2  0  0  0  0
  7  8  1  0  0  0  0
  8  9  2  0  0  0  0
 10 11  2  0  0  0  0
 10 15  1  0  0  0  0
 11 12  1  0  0  0  0
 12 13  2  0  0  0  0
 13  3  1  0  0  0  0
 13 14  1  0  0  0  0
 14 15  2  0  0  0  0
 16 17  2  0  0  0  0
 16 21  1  0  0  0  0
 17 18  1  0  0  0  0
 18 19  2  0  0  0  0
 19  5  1  0  0  0  0
 19 20  1  0  0  0  0
 20 21  2  0  0  0  0
 22  3  1  0  0  0  0
 23  3  1  0  0  0  0
 24  5  1  0  0  0  0
 25  5  1  0  0  0  0
M  END
>  <CHROM.1>
53.82485393,11.67786260,15.07654054,-158.03909279,178.66572218,0.62194949
0.28447233,-1.01685431,0.09719503,1.20601655,-0.88761363

>  <Name>
1q8n_lig

>  <RI>
0

>  <Rbt.Current_Directory>
/home/itssahil/PROJECTS/Mol_Feturizer/New_Systems/rnas/1q8n

>  <Rbt.Executable>
rbdock ($Id: //depot/dev/client3/rdock/2013.1/src/exe/rbdock.cxx#4 $)

>  <Rbt.Library>
libRbt.so (2013.1, Build901 2013/11/27)

>  <Rbt.Parameter_File>
/export/apps/rDock/src/rDock_2013.1_src/data/scripts/dock_solv.prm

>  <Rbt.Receptor>
prm/blind_docking_20.prm

>  <SCORE>
-53.3133

>  <SCORE.INTER>
-53.8869

>  <SCORE.INTER.CONST>
1

>  <SCORE.INTER.POLAR>
0

>  <SCORE.INTER.ROT>
5

>  <SCORE.INTER.SOLV>
10.2499

>  <SCORE.INTER.VDW>
-46.2746

>  <SCORE.INTER.norm>
-2.15548

>  <SCORE.INTRA>
0.573635

>  <SCORE.INTRA.DIHEDRAL>
1.79364

>  <SCORE.INTRA.DIHEDRAL.0>
2.1627

>  <SCORE.INTRA.POLAR>
0

>  <SCORE.INTRA.POLAR.0>
0

>  <SCORE.INTRA.REPUL>
0

>  <SCORE.INTRA.REPUL.0>
0

>  <SCORE.INTRA.SOLV>
0.0234315

>  <SCORE.INTRA.SOLV.lig_0>
-5.95779

>  <SCORE.INTRA.VDW>
-0.334902

>  <SCORE.INTRA.VDW.0>
3.81702

>  <SCORE.INTRA.norm>
0.0229454

>  <SCORE.RESTR>
0

>  <SCORE.RESTR.CAVITY>
0

>  <SCORE.RESTR.norm>
0

>  <SCORE.SYSTEM>
0

>  <SCORE.SYSTEM.CONST>
0

>  <SCORE.SYSTEM.DIHEDRAL>
0

>  <SCORE.SYSTEM.SOLV>
0

>  <SCORE.SYSTEM.norm>
0

>  <SCORE.heavy>
25

>  <SCORE.norm>
-2.13253

>  <RMSD>
0.721

$$$$
1q8n_lig
 OpenBabel11021811403D
libRbt.so/2013.1/901 2013/11/27
 25 27  0  0  0  0  0  0  0  0999 V2000
    0.6146    0.8456   -1.5866 C   0  0  0  0  0  0  0  0  0  0  0  0
    0.5867    1.9979   -2.7428 C   0  0  0  0  0  0  0  0  0  0  0  0
   -1.1688    2.2880    3.9053 N   0  0  0  0  0  0  0  0  0  0  0  0
    1.2183    3.1905   -2.6251 C   0  0  0  0  0  0  0  0  0  0  0  0
    2.5669   -4.6543   -2.9477 N   0  0  0  0  0  0  0  0  0  0  0  0
    1.1630    4.2118   -3.6964 C   0  0  0  0  0  0  0  0  0  0  0  0
    0.4680    3.9596   -4.8292 C   0  0  0  0  0  0  0  0  0  0  0  0
   -0.2072    2.6916   -4.9782 C   0  0  0  0  0  0  0  0  0  0  0  0
   -0.1515    1.7797   -4.0043 C   0  0  0  0  0  0  0  0  0  0  0  0
    0.1246    1.2459   -0.0833 C   0  0  0  0  0  0  0  0  0  0  0  0
   -0.6288    2.3431    0.1378 C   0  0  0  0  0  0  0  0  0  0  0  0
   -1.0852    2.7238    1.5033 C   0  0  0  0  0  0  0  0  0  0  0  0
   -0.7486    1.9581    2.5756 C   0  0  0  0  0  0  0  0  0  0  0  0
    0.0730    0.7540    2.3491 C   0  0  0  0  0  0  0  0  0  0  0  0
    0.4769    0.4270    1.1136 C   0  0  0  0  0  0  0  0  0  0  0  0
    1.1250   -0.6990   -1.9064 C   0  0  0  0  0  0  0  0  0  0  0  0
    1.7420   -1.0213   -3.2395 C   0  0  0  0  0  0  0  0  0  0  0  0
    2.1820   -2.2421   -3.5565 C   0  0  0  0  0  0  0  0  0  0  0  0
    2.0818   -3.3513   -2.6008 C   0  0  0  0  0  0  0  0  0  0  0  0
    1.5303   -3.1173   -1.3919 C   0  0  0  0  0  0  0  0  0  0  0  0
    1.0337   -1.7488   -1.0238 C   0  0  0  0  0  0  0  0  0  0  0  0
   -1.9224    3.4693    4.1972 C   0  0  0  0  0  0  0  0  0  0  0  0
   -0.8398    1.4260    4.9979 C   0  0  0  0  0  0  0  0  0  0  0  0
    2.0272   -5.8219   -2.3123 C   0  0  0  0  0  0  0  0  0  0  0  0
    3.6004   -4.8296   -3.9430 C   0  0  0  0  0  0  0  0  0  0  0  0
  1  2  1  0  0  0  0
  1 10  1  0  0  0  0
  1 16  1  0  0  0  0
  2  4  2  0  0  0  0
  2  9  1  0  0  0  0
  4  6  1  0  0  0  0
  6  7  2  0  0  0  0
  7  8  1  0  0  0  0
  8  9  2  0  0  0  0
 10 11  2  0  0  0  0
 10 15  1  0  0  0  0
 11 12  1  0  0  0  0
 12 13  2  0  0  0  0
 13  3  1  0  0  0  0
 13 14  1  0  0  0  0
 14 15  2  0  0  0  0
 16 17  2  0  0  0  0
 16 21  1  0  0  0  0
 17 18  1  0  0  0  0
 18 19  2  0  0  0  0
 19  5  1  0  0  0  0
 19 20  1  0  0  0  0
 20 21  2  0  0  0  0
 22  3  1  0  0  0  0
 23  3  1  0  0  0  0
 24  5  1  0  0  0  0
 25  5  1  0  0  0  0
M  END
>  <CHROM.1>
55.30319349,18.62157713,7.84067569,-2.54749336,-154.80074865,0.63687390,0.26261314
-1.01605003,3.05510254,-1.20564559,2.25627174

>  <Name>
1q8n_lig

>  <RI>
0

>  <Rbt.Current_Directory>
/home/itssahil/PROJECTS/Mol_Feturizer/New_Systems/rnas/1q8n

>  <Rbt.Executable>
rbdock ($Id: //depot/dev/client3/rdock/2013.1/src/exe/rbdock.cxx#4 $)

>  <Rbt.Library>
libRbt.so (2013.1, Build901 2013/11/27)

>  <Rbt.Parameter_File>
/export/apps/rDock/src/rDock_2013.1_src/data/scripts/dock_solv.prm

>  <Rbt.Receptor>
prm/pocket_docking_5.prm

>  <SCORE>
-53.1157

>  <SCORE.INTER>
-53.6698

>  <SCORE.INTER.CONST>
1

>  <SCORE.INTER.POLAR>
0

>  <SCORE.INTER.ROT>
5

>  <SCORE.INTER.SOLV>
10.2832

>  <SCORE.INTER.VDW>
-46.1409

>  <SCORE.INTER.norm>
-2.14679

>  <SCORE.INTRA>
0.554049

>  <SCORE.INTRA.DIHEDRAL>
2.34003

>  <SCORE.INTRA.DIHEDRAL.0>
2.1627

>  <SCORE.INTRA.POLAR>
0

>  <SCORE.INTRA.POLAR.0>
0

>  <SCORE.INTRA.REPUL>
0

>  <SCORE.INTRA.REPUL.0>
0

>  <SCORE.INTRA.SOLV>
0.0212904

>  <SCORE.INTRA.SOLV.lig_0>
-5.95779

>  <SCORE.INTRA.VDW>
-0.626612

>  <SCORE.INTRA.VDW.0>
3.81702

>  <SCORE.INTRA.norm>
0.022162

>  <SCORE.RESTR>
0

>  <SCORE.RESTR.CAVITY>
0

>  <SCORE.RESTR.norm>
0

>  <SCORE.SYSTEM>
0

>  <SCORE.SYSTEM.CONST>
0

>  <SCORE.SYSTEM.DIHEDRAL>
0

>  <SCORE.SYSTEM.SOLV>
0

>  <SCORE.SYSTEM.norm>
0

>  <SCORE.heavy>
25

>  <SCORE.norm>
-2.12463

>  <RMSD>
0.722

$$$$
1q8n_lig
 OpenBabel11021811403D
libRbt.so/2013.1/901 2013/11/27
 25 27  0  0  0  0  0  0  0  0999 V2000
    0.6176    0.8331   -1.6615 C   0  0  0  0  0  0  0  0  0  0  0  0
    0.5217    1.9562   -2.8425 C   0  0  0  0  0  0  0  0  0  0  0  0
    2.6257   -4.5929   -3.0573 N   0  0  0  0  0  0  0  0  0  0  0  0
   -0.1410    1.7610   -4.0077 C   0  0  0  0  0  0  0  0  0  0  0  0
   -1.1442    2.2213    3.8956 N   0  0  0  0  0  0  0  0  0  0  0  0
   -0.1989    2.8050   -5.0568 C   0  0  0  0  0  0  0  0  0  0  0  0
    0.4210    3.9910   -4.8587 C   0  0  0  0  0  0  0  0  0  0  0  0
    1.1276    4.2225   -3.6206 C   0  0  0  0  0  0  0  0  0  0  0  0
    1.1742    3.2726   -2.6832 C   0  0  0  0  0  0  0  0  0  0  0  0
    1.1684   -0.6524   -2.0492 C   0  0  0  0  0  0  0  0  0  0  0  0
    1.7771   -0.8863   -3.2303 C   0  0  0  0  0  0  0  0  0  0  0  0
    2.2861   -2.2359   -3.6010 C   0  0  0  0  0  0  0  0  0  0  0  0
    2.1482   -3.2795   -2.7401 C   0  0  0  0  0  0  0  0  0  0  0  0
    1.4866   -3.0385   -1.4439 C   0  0  0  0  0  0  0  0  0  0  0  0
    1.0326   -1.8178   -1.1269 C   0  0  0  0  0  0  0  0  0  0  0  0
    0.1714    1.1684   -0.1004 C   0  0  0  0  0  0  0  0  0  0  0  0
   -0.6537    2.3905    0.1950 C   0  0  0  0  0  0  0  0  0  0  0  0
   -1.0540    2.7121    1.4281 C   0  0  0  0  0  0  0  0  0  0  0  0
   -0.7002    1.8724    2.5786 C   0  0  0  0  0  0  0  0  0  0  0  0
    0.0444    0.7669    2.3694 C   0  0  0  0  0  0  0  0  0  0  0  0
    0.4988    0.3946    0.9874 C   0  0  0  0  0  0  0  0  0  0  0  0
    2.1183   -5.7663   -2.4137 C   0  0  0  0  0  0  0  0  0  0  0  0
    3.6426   -4.7684   -4.0474 C   0  0  0  0  0  0  0  0  0  0  0  0
   -0.8433    1.3710    5.0113 C   0  0  0  0  0  0  0  0  0  0  0  0
   -1.8961    3.4319    4.1378 C   0  0  0  0  0  0  0  0  0  0  0  0
  1  2  1  0  0  0  0
  1 10  1  0  0  0  0
  1 16  1  0  0  0  0
  2  4  2  0  0  0  0
  2  9  1  0  0  0  0
  4  6  1  0  0  0  0
  6  7  2  0  0  0  0
  7  8  1  0  0  0  0
  8  9  2  0  0  0  0
 10 11  2  0  0  0  0
 10 15  1  0  0  0  0
 11 12  1  0  0  0  0
 12 13  2  0  0  0  0
 13  3  1  0  0  0  0
 13 14  1  0  0  0  0
 14 15  2  0  0  0  0
 16 17  2  0  0  0  0
 16 21  1  0  0  0  0
 17 18  1  0  0  0  0
 18 19  2  0  0  0  0
 19  5  1  0  0  0  0
 19 20  1  0  0  0  0
 20 21  2  0  0  0  0
 22  3  1  0  0  0  0
 23  3  1  0  0  0  0
 24  5  1  0  0  0  0
 25  5  1  0  0  0  0
M  END
>  <CHROM.1>
53.92211770,13.02925161,15.60493066,-158.43976357,177.47529417,0.65217445
0.27506501,-1.06599627,0.11455625,1.20020140,-0.89926891

>  <Name>
1q8n_lig

>  <RI>
0

>  <Rbt.Current_Directory>
/home/itssahil/PROJECTS/Mol_Feturizer/New_Systems/rnas/1q8n

>  <Rbt.Executable>
rbdock ($Id: //depot/dev/client3/rdock/2013.1/src/exe/rbdock.cxx#4 $)

>  <Rbt.Library>
libRbt.so (2013.1, Build901 2013/11/27)

>  <Rbt.Parameter_File>
/export/apps/rDock/src/rDock_2013.1_src/data/scripts/dock_solv.prm

>  <Rbt.Receptor>
prm/blind_docking_100.prm

>  <SCORE>
-53.2906

>  <SCORE.INTER>
-53.8312

>  <SCORE.INTER.CONST>
1

>  <SCORE.INTER.POLAR>
0

>  <SCORE.INTER.ROT>
5

>  <SCORE.INTER.SOLV>
10.2127

>  <SCORE.INTER.VDW>
-46.2251

>  <SCORE.INTER.norm>
-2.15325

>  <SCORE.INTRA>
0.540591

>  <SCORE.INTRA.DIHEDRAL>
1.74989

>  <SCORE.INTRA.DIHEDRAL.0>
2.1627

>  <SCORE.INTRA.POLAR>
0

>  <SCORE.INTRA.POLAR.0>
0

>  <SCORE.INTRA.REPUL>
0

>  <SCORE.INTRA.REPUL.0>
0

>  <SCORE.INTRA.SOLV>
0.022219

>  <SCORE.INTRA.SOLV.lig_0>
-5.95779

>  <SCORE.INTRA.VDW>
-0.345465

>  <SCORE.INTRA.VDW.0>
3.81702

>  <SCORE.INTRA.norm>
0.0216236

>  <SCORE.RESTR>
0

>  <SCORE.RESTR.CAVITY>
0

>  <SCORE.RESTR.norm>
0

>  <SCORE.SYSTEM>
0

>  <SCORE.SYSTEM.CONST>
0

>  <SCORE.SYSTEM.DIHEDRAL>
0

>  <SCORE.SYSTEM.SOLV>
0

>  <SCORE.SYSTEM.norm>
0

>  <SCORE.heavy>
25

>  <SCORE.norm>
-2.13163

>  <RMSD>
0.723

$$$$
1q8n_lig
 OpenBabel11021811413D
libRbt.so/2013.1/901 2013/11/27
 25 27  0  0  0  0  0  0  0  0999 V2000
    0.5080    0.9063   -1.5744 C   0  0  0  0  0  0  0  0  0  0  0  0
    0.5101    1.9832   -2.8014 C   0  0  0  0  0  0  0  0  0  0  0  0
    2.4135   -4.6209   -2.6884 N   0  0  0  0  0  0  0  0  0  0  0  0
    1.1807    3.1595   -2.7624 C   0  0  0  0  0  0  0  0  0  0  0  0
   -1.2084    2.2198    4.0150 N   0  0  0  0  0  0  0  0  0  0  0  0
    1.1518    4.1121   -3.8963 C   0  0  0  0  0  0  0  0  0  0  0  0
    0.4417    3.8116   -5.0078 C   0  0  0  0  0  0  0  0  0  0  0  0
   -0.2752    2.5595   -5.0729 C   0  0  0  0  0  0  0  0  0  0  0  0
   -0.2429    1.7098   -4.0433 C   0  0  0  0  0  0  0  0  0  0  0  0
    1.0298   -0.6096   -1.8744 C   0  0  0  0  0  0  0  0  0  0  0  0
    0.9020   -1.5882   -0.9544 C   0  0  0  0  0  0  0  0  0  0  0  0
    1.3727   -2.9776   -1.2110 C   0  0  0  0  0  0  0  0  0  0  0  0
    1.9492   -3.2960   -2.4008 C   0  0  0  0  0  0  0  0  0  0  0  0
    2.0938   -2.2370   -3.4174 C   0  0  0  0  0  0  0  0  0  0  0  0
    1.6663   -0.9911   -3.1692 C   0  0  0  0  0  0  0  0  0  0  0  0
   -0.0078    1.3177   -0.0534 C   0  0  0  0  0  0  0  0  0  0  0  0
    0.3653    0.4557    1.1210 C   0  0  0  0  0  0  0  0  0  0  0  0
   -0.0095    0.7363    2.3721 C   0  0  0  0  0  0  0  0  0  0  0  0
   -0.8211    1.9227    2.6677 C   0  0  0  0  0  0  0  0  0  0  0  0
   -1.1886    2.7269    1.6486 C   0  0  0  0  0  0  0  0  0  0  0  0
   -0.7719    2.4224    0.2384 C   0  0  0  0  0  0  0  0  0  0  0  0
    3.3565   -4.8904   -3.7308 C   0  0  0  0  0  0  0  0  0  0  0  0
    1.9368   -5.7315   -1.9238 C   0  0  0  0  0  0  0  0  0  0  0  0
   -1.9391    3.4183    4.3120 C   0  0  0  0  0  0  0  0  0  0  0  0
   -0.8827    1.3263    5.1036 C   0  0  0  0  0  0  0  0  0  0  0  0
  1  2  1  0  0  0  0
  1 10  1  0  0  0  0
  1 16  1  0  0  0  0
  2  4  2  0  0  0  0
  2  9  1  0  0  0  0
  4  6  1  0  0  0  0
  6  7  2  0  0  0  0
  7  8  1  0  0  0  0
  8  9  2  0  0  0  0
 10 11  2  0  0  0  0
 10 15  1  0  0  0  0
 11 12  1  0  0  0  0
 12 13  2  0  0  0  0
 13  3  1  0  0  0  0
 13 14  1  0  0  0  0
 14 15  2  0  0  0  0
 16 17  2  0  0  0  0
 16 21  1  0  0  0  0
 17 18  1  0  0  0  0
 18 19  2  0  0  0  0
 19  5  1  0  0  0  0
 19 20  1  0  0  0  0
 20 21  2  0  0  0  0
 22  3  1  0  0  0  0
 23  3  1  0  0  0  0
 24  5  1  0  0  0  0
 25  5  1  0  0  0  0
M  END
>  <CHROM.1>
-122.28835857,-171.81270134,-162.35855628,-160.92915233,176.56706095,0.54360371
0.26203655,-0.94843398,0.14032630,1.20720060,-0.90238673

>  <Name>
1q8n_lig

>  <RI>
0

>  <Rbt.Current_Directory>
/home/itssahil/PROJECTS/Mol_Feturizer/New_Systems/rnas/1q8n

>  <Rbt.Executable>
rbdock ($Id: //depot/dev/client3/rdock/2013.1/src/exe/rbdock.cxx#4 $)

>  <Rbt.Library>
libRbt.so (2013.1, Build901 2013/11/27)

>  <Rbt.Parameter_File>
/export/apps/rDock/src/rDock_2013.1_src/data/scripts/dock_solv.prm

>  <Rbt.Receptor>
prm/pocket_docking_7.prm

>  <SCORE>
-53.8268

>  <SCORE.INTER>
-54.5816

>  <SCORE.INTER.CONST>
1

>  <SCORE.INTER.POLAR>
0

>  <SCORE.INTER.ROT>
5

>  <SCORE.INTER.SOLV>
10.124

>  <SCORE.INTER.VDW>
-46.6957

>  <SCORE.INTER.norm>
-2.18326

>  <SCORE.INTRA>
0.754789

>  <SCORE.INTRA.DIHEDRAL>
1.41223

>  <SCORE.INTRA.DIHEDRAL.0>
2.1627

>  <SCORE.INTRA.POLAR>
0

>  <SCORE.INTRA.POLAR.0>
0

>  <SCORE.INTRA.REPUL>
0

>  <SCORE.INTRA.REPUL.0>
0

>  <SCORE.INTRA.SOLV>
0.0262601

>  <SCORE.INTRA.SOLV.lig_0>
-5.95779

>  <SCORE.INTRA.VDW>
0.0355451

>  <SCORE.INTRA.VDW.0>
3.81702

>  <SCORE.INTRA.norm>
0.0301916

>  <SCORE.RESTR>
0

>  <SCORE.RESTR.CAVITY>
0

>  <SCORE.RESTR.norm>
0

>  <SCORE.SYSTEM>
0

>  <SCORE.SYSTEM.CONST>
0

>  <SCORE.SYSTEM.DIHEDRAL>
0

>  <SCORE.SYSTEM.SOLV>
0

>  <SCORE.SYSTEM.norm>
0

>  <SCORE.heavy>
25

>  <SCORE.norm>
-2.15307

>  <RMSD>
0.723

$$$$
1q8n_lig
 OpenBabel11021811403D
libRbt.so/2013.1/901 2013/11/27
 25 27  0  0  0  0  0  0  0  0999 V2000
    0.6151    0.8443   -1.6212 C   0  0  0  0  0  0  0  0  0  0  0  0
    0.5380    1.9658   -2.8052 C   0  0  0  0  0  0  0  0  0  0  0  0
    2.5843   -4.6025   -2.9910 N   0  0  0  0  0  0  0  0  0  0  0  0
   -0.0958    1.7645   -3.9853 C   0  0  0  0  0  0  0  0  0  0  0  0
   -1.1557    2.2753    3.9222 N   0  0  0  0  0  0  0  0  0  0  0  0
   -0.1374    2.8072   -5.0365 C   0  0  0  0  0  0  0  0  0  0  0  0
    0.4685    3.9981   -4.8252 C   0  0  0  0  0  0  0  0  0  0  0  0
    1.1443    4.2361   -3.5712 C   0  0  0  0  0  0  0  0  0  0  0  0
    1.1764    3.2873   -2.6320 C   0  0  0  0  0  0  0  0  0  0  0  0
    1.1551   -0.6469   -2.0018 C   0  0  0  0  0  0  0  0  0  0  0  0
    1.7400   -0.8963   -3.1918 C   0  0  0  0  0  0  0  0  0  0  0  0
    2.2388   -2.2514   -3.5562 C   0  0  0  0  0  0  0  0  0  0  0  0
    2.1158   -3.2843   -2.6803 C   0  0  0  0  0  0  0  0  0  0  0  0
    1.4804   -3.0263   -1.3742 C   0  0  0  0  0  0  0  0  0  0  0  0
    1.0352   -1.8009   -1.0631 C   0  0  0  0  0  0  0  0  0  0  0  0
    0.1606    1.1871   -0.0641 C   0  0  0  0  0  0  0  0  0  0  0  0
   -0.5463    2.4789    0.2410 C   0  0  0  0  0  0  0  0  0  0  0  0
   -0.9472    2.8108    1.4712 C   0  0  0  0  0  0  0  0  0  0  0  0
   -0.7117    1.9137    2.6086 C   0  0  0  0  0  0  0  0  0  0  0  0
   -0.0756    0.7440    2.3905 C   0  0  0  0  0  0  0  0  0  0  0  0
    0.3783    0.3595    1.0117 C   0  0  0  0  0  0  0  0  0  0  0  0
    2.0546   -5.7708   -2.3563 C   0  0  0  0  0  0  0  0  0  0  0  0
    3.6147   -4.7882   -3.9652 C   0  0  0  0  0  0  0  0  0  0  0  0
   -0.8451    1.4416    5.0477 C   0  0  0  0  0  0  0  0  0  0  0  0
   -1.9174    3.4823    4.1510 C   0  0  0  0  0  0  0  0  0  0  0  0
  1  2  1  0  0  0  0
  1 10  1  0  0  0  0
  1 16  1  0  0  0  0
  2  4  2  0  0  0  0
  2  9  1  0  0  0  0
  4  6  1  0  0  0  0
  6  7  2  0  0  0  0
  7  8  1  0  0  0  0
  8  9  2  0  0  0  0
 10 11  2  0  0  0  0
 10 15  1  0  0  0  0
 11 12  1  0  0  0  0
 12 13  2  0  0  0  0
 13  3  1  0  0  0  0
 13 14  1  0  0  0  0
 14 15  2  0  0  0  0
 16 17  2  0  0  0  0
 16 21  1  0  0  0  0
 17 18  1  0  0  0  0
 18 19  2  0  0  0  0
 19  5  1  0  0  0  0
 19 20  1  0  0  0  0
 20 21  2  0  0  0  0
 22  3  1  0  0  0  0
 23  3  1  0  0  0  0
 24  5  1  0  0  0  0
 25  5  1  0  0  0  0
M  END
>  <CHROM.1>
52.58662096,11.33516580,10.04303966,-156.23577852,-175.72458681,0.64505149
0.29119153,-1.02339764,0.08241712,1.20566897,-0.87333825

>  <Name>
1q8n_lig

>  <RI>
0

>  <Rbt.Current_Directory>
/home/itssahil/PROJECTS/Mol_Feturizer/New_Systems/rnas/1q8n

>  <Rbt.Executable>
rbdock ($Id: //depot/dev/client3/rdock/2013.1/src/exe/rbdock.cxx#4 $)

>  <Rbt.Library>
libRbt.so (2013.1, Build901 2013/11/27)

>  <Rbt.Parameter_File>
/export/apps/rDock/src/rDock_2013.1_src/data/scripts/dock_solv.prm

>  <Rbt.Receptor>
prm/blind_docking_80.prm

>  <SCORE>
-53.3813

>  <SCORE.INTER>
-54.0617

>  <SCORE.INTER.CONST>
1

>  <SCORE.INTER.POLAR>
0

>  <SCORE.INTER.ROT>
5

>  <SCORE.INTER.SOLV>
10.2128

>  <SCORE.INTER.VDW>
-46.3787

>  <SCORE.INTER.norm>
-2.16247

>  <SCORE.INTRA>
0.680431

>  <SCORE.INTRA.DIHEDRAL>
2.14622

>  <SCORE.INTRA.DIHEDRAL.0>
2.1627

>  <SCORE.INTRA.POLAR>
0

>  <SCORE.INTRA.POLAR.0>
0

>  <SCORE.INTRA.REPUL>
0

>  <SCORE.INTRA.REPUL.0>
0

>  <SCORE.INTRA.SOLV>
0.0283054

>  <SCORE.INTRA.SOLV.lig_0>
-5.95779

>  <SCORE.INTRA.VDW>
-0.406831

>  <SCORE.INTRA.VDW.0>
3.81702

>  <SCORE.INTRA.norm>
0.0272173

>  <SCORE.RESTR>
0

>  <SCORE.RESTR.CAVITY>
0

>  <SCORE.RESTR.norm>
0

>  <SCORE.SYSTEM>
0

>  <SCORE.SYSTEM.CONST>
0

>  <SCORE.SYSTEM.DIHEDRAL>
0

>  <SCORE.SYSTEM.SOLV>
0

>  <SCORE.SYSTEM.norm>
0

>  <SCORE.heavy>
25

>  <SCORE.norm>
-2.13525

>  <RMSD>
0.724

$$$$
1q8n_lig
 OpenBabel11021811403D
libRbt.so/2013.1/901 2013/11/27
 25 27  0  0  0  0  0  0  0  0999 V2000
    0.6556    0.8306   -1.6458 C   0  0  0  0  0  0  0  0  0  0  0  0
    0.5981    1.9646   -2.8189 C   0  0  0  0  0  0  0  0  0  0  0  0
    2.5919   -4.6182   -3.0541 N   0  0  0  0  0  0  0  0  0  0  0  0
    1.2343    3.1577   -2.7371 C   0  0  0  0  0  0  0  0  0  0  0  0
   -1.1763    2.1999    3.8933 N   0  0  0  0  0  0  0  0  0  0  0  0
    1.1516    4.1621   -3.8226 C   0  0  0  0  0  0  0  0  0  0  0  0
    0.4257    3.8935   -4.9320 C   0  0  0  0  0  0  0  0  0  0  0  0
   -0.2552    2.6246   -5.0426 C   0  0  0  0  0  0  0  0  0  0  0  0
   -0.1744    1.7280   -4.0564 C   0  0  0  0  0  0  0  0  0  0  0  0
    1.1866   -0.6611   -2.0370 C   0  0  0  0  0  0  0  0  0  0  0  0
    1.7707   -0.9055   -3.2284 C   0  0  0  0  0  0  0  0  0  0  0  0
    2.2613   -2.2609   -3.6024 C   0  0  0  0  0  0  0  0  0  0  0  0
    2.1313   -3.2994   -2.7340 C   0  0  0  0  0  0  0  0  0  0  0  0
    1.4967   -3.0470   -1.4266 C   0  0  0  0  0  0  0  0  0  0  0  0
    1.0590   -1.8211   -1.1068 C   0  0  0  0  0  0  0  0  0  0  0  0
    0.1905    1.1614   -0.0892 C   0  0  0  0  0  0  0  0  0  0  0  0
   -0.6547    2.3718    0.1971 C   0  0  0  0  0  0  0  0  0  0  0  0
   -1.0708    2.6891    1.4262 C   0  0  0  0  0  0  0  0  0  0  0  0
   -0.7154    1.8559    2.5808 C   0  0  0  0  0  0  0  0  0  0  0  0
    0.0469    0.7610    2.3798 C   0  0  0  0  0  0  0  0  0  0  0  0
    0.5191    0.3935    1.0025 C   0  0  0  0  0  0  0  0  0  0  0  0
    2.0712   -5.7861   -2.4112 C   0  0  0  0  0  0  0  0  0  0  0  0
    3.6047   -4.8048   -4.0464 C   0  0  0  0  0  0  0  0  0  0  0  0
   -0.9177    1.3293    5.0040 C   0  0  0  0  0  0  0  0  0  0  0  0
   -1.9033    3.4255    4.1360 C   0  0  0  0  0  0  0  0  0  0  0  0
  1  2  1  0  0  0  0
  1 10  1  0  0  0  0
  1 16  1  0  0  0  0
  2  4  2  0  0  0  0
  2  9  1  0  0  0  0
  4  6  1  0  0  0  0
  6  7  2  0  0  0  0
  7  8  1  0  0  0  0
  8  9  2  0  0  0  0
 10 11  2  0  0  0  0
 10 15  1  0  0  0  0
 11 12  1  0  0  0  0
 12 13  2  0  0  0  0
 13  3  1  0  0  0  0
 13 14  1  0  0  0  0
 14 15  2  0  0  0  0
 16 17  2  0  0  0  0
 16 21  1  0  0  0  0
 17 18  1  0  0  0  0
 18 19  2  0  0  0  0
 19  5  1  0  0  0  0
 19 20  1  0  0  0  0
 20 21  2  0  0  0  0
 22  3  1  0  0  0  0
 23  3  1  0  0  0  0
 24  5  1  0  0  0  0
 25  5  1  0  0  0  0
M  END
>  <CHROM.1>
-123.51143088,10.83280401,17.54230031,-157.36726686,175.06528036,0.64663836
0.24338300,-1.07540515,0.12552152,1.20028782,-0.89720536

>  <Name>
1q8n_lig

>  <RI>
0

>  <Rbt.Current_Directory>
/home/itssahil/PROJECTS/Mol_Feturizer/New_Systems/rnas/1q8n

>  <Rbt.Executable>
rbdock ($Id: //depot/dev/client3/rdock/2013.1/src/exe/rbdock.cxx#4 $)

>  <Rbt.Library>
libRbt.so (2013.1, Build901 2013/11/27)

>  <Rbt.Parameter_File>
/export/apps/rDock/src/rDock_2013.1_src/data/scripts/dock_solv.prm

>  <Rbt.Receptor>
prm/blind_docking_20.prm

>  <SCORE>
-53.9031

>  <SCORE.INTER>
-54.4672

>  <SCORE.INTER.CONST>
1

>  <SCORE.INTER.POLAR>
0

>  <SCORE.INTER.ROT>
5

>  <SCORE.INTER.SOLV>
10.0642

>  <SCORE.INTER.VDW>
-46.5996

>  <SCORE.INTER.norm>
-2.17869

>  <SCORE.INTRA>
0.564144

>  <SCORE.INTRA.DIHEDRAL>
1.98699

>  <SCORE.INTRA.DIHEDRAL.0>
2.1627

>  <SCORE.INTRA.POLAR>
0

>  <SCORE.INTRA.POLAR.0>
0

>  <SCORE.INTRA.REPUL>
0

>  <SCORE.INTRA.REPUL.0>
0

>  <SCORE.INTRA.SOLV>
0.0190589

>  <SCORE.INTRA.SOLV.lig_0>
-5.95779

>  <SCORE.INTRA.VDW>
-0.43888

>  <SCORE.INTRA.VDW.0>
3.81702

>  <SCORE.INTRA.norm>
0.0225657

>  <SCORE.RESTR>
0

>  <SCORE.RESTR.CAVITY>
0

>  <SCORE.RESTR.norm>
0

>  <SCORE.SYSTEM>
0

>  <SCORE.SYSTEM.CONST>
0

>  <SCORE.SYSTEM.DIHEDRAL>
0

>  <SCORE.SYSTEM.SOLV>
0

>  <SCORE.SYSTEM.norm>
0

>  <SCORE.heavy>
25

>  <SCORE.norm>
-2.15612

>  <RMSD>
0.725

$$$$
1q8n_lig
 OpenBabel11021811413D
libRbt.so/2013.1/901 2013/11/27
 25 27  0  0  0  0  0  0  0  0999 V2000
    0.4532    0.8901   -1.6060 C   0  0  0  0  0  0  0  0  0  0  0  0
    0.4145    1.9524   -2.8452 C   0  0  0  0  0  0  0  0  0  0  0  0
    2.4135   -4.6303   -2.6568 N   0  0  0  0  0  0  0  0  0  0  0  0
   -0.2751    1.7390   -3.9914 C   0  0  0  0  0  0  0  0  0  0  0  0
   -1.1709    2.2411    4.0020 N   0  0  0  0  0  0  0  0  0  0  0  0
   -0.2793    2.7270   -5.0949 C   0  0  0  0  0  0  0  0  0  0  0  0
    0.4188    3.8786   -4.9677 C   0  0  0  0  0  0  0  0  0  0  0  0
    1.1556    4.1292   -3.7510 C   0  0  0  0  0  0  0  0  0  0  0  0
    1.1531    3.2298   -2.7640 C   0  0  0  0  0  0  0  0  0  0  0  0
    0.9906   -0.6217   -1.8993 C   0  0  0  0  0  0  0  0  0  0  0  0
    1.5339   -0.9522   -3.0892 C   0  0  0  0  0  0  0  0  0  0  0  0
    2.0297   -2.3273   -3.3745 C   0  0  0  0  0  0  0  0  0  0  0  0
    1.9464   -3.2958   -2.4235 C   0  0  0  0  0  0  0  0  0  0  0  0
    1.3567   -2.9486   -1.1167 C   0  0  0  0  0  0  0  0  0  0  0  0
    0.9136   -1.7064   -0.8773 C   0  0  0  0  0  0  0  0  0  0  0  0
   -0.0370    1.3122   -0.0795 C   0  0  0  0  0  0  0  0  0  0  0  0
    0.3450    0.4513    1.0929 C   0  0  0  0  0  0  0  0  0  0  0  0
   -0.0093    0.7402    2.3481 C   0  0  0  0  0  0  0  0  0  0  0  0
   -0.8057    1.9352    2.6505 C   0  0  0  0  0  0  0  0  0  0  0  0
   -1.1803    2.7388    1.6335 C   0  0  0  0  0  0  0  0  0  0  0  0
   -0.7866    2.4250    0.2188 C   0  0  0  0  0  0  0  0  0  0  0  0
    3.3502   -4.9415   -3.6933 C   0  0  0  0  0  0  0  0  0  0  0  0
    1.9463   -5.7084   -1.8415 C   0  0  0  0  0  0  0  0  0  0  0  0
   -0.7966    1.3608    5.0713 C   0  0  0  0  0  0  0  0  0  0  0  0
   -1.9150    3.4374    4.3257 C   0  0  0  0  0  0  0  0  0  0  0  0
  1  2  1  0  0  0  0
  1 10  1  0  0  0  0
  1 16  1  0  0  0  0
  2  4  2  0  0  0  0
  2  9  1  0  0  0  0
  4  6  1  0  0  0  0
  6  7  2  0  0  0  0
  7  8  1  0  0  0  0
  8  9  2  0  0  0  0
 10 11  2  0  0  0  0
 10 15  1  0  0  0  0
 11 12  1  0  0  0  0
 12 13  2  0  0  0  0
 13  3  1  0  0  0  0
 13 14  1  0  0  0  0
 14 15  2  0  0  0  0
 16 17  2  0  0  0  0
 16 21  1  0  0  0  0
 17 18  1  0  0  0  0
 18 19  2  0  0  0  0
 19  5  1  0  0  0  0
 19 20  1  0  0  0  0
 20 21  2  0  0  0  0
 22  3  1  0  0  0  0
 23  3  1  0  0  0  0
 24  5  1  0  0  0  0
 25  5  1  0  0  0  0
M  END
>  <CHROM.1>
57.70405690,7.51520934,-163.82479444,19.99092934,-1.89277623,0.53046268,0.27062061
-0.93257877,0.12934910,1.21086064,-0.91736389

>  <Name>
1q8n_lig

>  <RI>
0

>  <Rbt.Current_Directory>
/home/itssahil/PROJECTS/Mol_Feturizer/New_Systems/rnas/1q8n

>  <Rbt.Executable>
rbdock ($Id: //depot/dev/client3/rdock/2013.1/src/exe/rbdock.cxx#4 $)

>  <Rbt.Library>
libRbt.so (2013.1, Build901 2013/11/27)

>  <Rbt.Parameter_File>
/export/apps/rDock/src/rDock_2013.1_src/data/scripts/dock_solv.prm

>  <Rbt.Receptor>
prm/pocket_docking_8.prm

>  <SCORE>
-53.6878

>  <SCORE.INTER>
-54.3577

>  <SCORE.INTER.CONST>
1

>  <SCORE.INTER.POLAR>
0

>  <SCORE.INTER.ROT>
5

>  <SCORE.INTER.SOLV>
10.2621

>  <SCORE.INTER.VDW>
-46.5925

>  <SCORE.INTER.norm>
-2.17431

>  <SCORE.INTRA>
0.669998

>  <SCORE.INTRA.DIHEDRAL>
1.5089

>  <SCORE.INTRA.DIHEDRAL.0>
2.1627

>  <SCORE.INTRA.POLAR>
0

>  <SCORE.INTRA.POLAR.0>
0

>  <SCORE.INTRA.REPUL>
0

>  <SCORE.INTRA.REPUL.0>
0

>  <SCORE.INTRA.SOLV>
0.0262177

>  <SCORE.INTRA.SOLV.lig_0>
-5.95779

>  <SCORE.INTRA.VDW>
-0.0975583

>  <SCORE.INTRA.VDW.0>
3.81702

>  <SCORE.INTRA.norm>
0.0267999

>  <SCORE.RESTR>
0

>  <SCORE.RESTR.CAVITY>
0

>  <SCORE.RESTR.norm>
0

>  <SCORE.SYSTEM>
0

>  <SCORE.SYSTEM.CONST>
0

>  <SCORE.SYSTEM.DIHEDRAL>
0

>  <SCORE.SYSTEM.SOLV>
0

>  <SCORE.SYSTEM.norm>
0

>  <SCORE.heavy>
25

>  <SCORE.norm>
-2.14751

>  <RMSD>
0.725

$$$$
1q8n_lig
 OpenBabel11021811403D
libRbt.so/2013.1/901 2013/11/27
 25 27  0  0  0  0  0  0  0  0999 V2000
    0.6114    0.8535   -1.5870 C   0  0  0  0  0  0  0  0  0  0  0  0
    0.5852    2.0066   -2.7426 C   0  0  0  0  0  0  0  0  0  0  0  0
   -1.1713    2.2947    3.9054 N   0  0  0  0  0  0  0  0  0  0  0  0
    1.1928    3.2101   -2.6114 C   0  0  0  0  0  0  0  0  0  0  0  0
    2.5536   -4.6489   -2.9525 N   0  0  0  0  0  0  0  0  0  0  0  0
    1.1400    4.2317   -3.6827 C   0  0  0  0  0  0  0  0  0  0  0  0
    0.4717    3.9685   -4.8290 C   0  0  0  0  0  0  0  0  0  0  0  0
   -0.1775    2.6887   -4.9923 C   0  0  0  0  0  0  0  0  0  0  0  0
   -0.1243    1.7767   -4.0184 C   0  0  0  0  0  0  0  0  0  0  0  0
    0.1222    1.2536   -0.0834 C   0  0  0  0  0  0  0  0  0  0  0  0
   -0.5029    2.4241    0.1604 C   0  0  0  0  0  0  0  0  0  0  0  0
   -0.9563    2.8059    1.5266 C   0  0  0  0  0  0  0  0  0  0  0  0
   -0.7488    1.9663    2.5760 C   0  0  0  0  0  0  0  0  0  0  0  0
   -0.0685    0.6817    2.3244 C   0  0  0  0  0  0  0  0  0  0  0  0
    0.3348    0.3547    1.0887 C   0  0  0  0  0  0  0  0  0  0  0  0
    1.1193   -0.6918   -1.9079 C   0  0  0  0  0  0  0  0  0  0  0  0
    1.7303   -1.0155   -3.2434 C   0  0  0  0  0  0  0  0  0  0  0  0
    2.1679   -2.2369   -3.5614 C   0  0  0  0  0  0  0  0  0  0  0  0
    2.0710   -3.3453   -2.6045 C   0  0  0  0  0  0  0  0  0  0  0  0
    1.5249   -3.1099   -1.3933 C   0  0  0  0  0  0  0  0  0  0  0  0
    1.0309   -1.7408   -1.0241 C   0  0  0  0  0  0  0  0  0  0  0  0
   -0.8844    1.4540    5.0276 C   0  0  0  0  0  0  0  0  0  0  0  0
   -1.9054    3.4974    4.1500 C   0  0  0  0  0  0  0  0  0  0  0  0
    2.0159   -5.8156   -2.3138 C   0  0  0  0  0  0  0  0  0  0  0  0
    3.5825   -4.8258   -3.9523 C   0  0  0  0  0  0  0  0  0  0  0  0
  1  2  1  0  0  0  0
  1 10  1  0  0  0  0
  1 16  1  0  0  0  0
  2  4  2  0  0  0  0
  2  9  1  0  0  0  0
  4  6  1  0  0  0  0
  6  7  2  0  0  0  0
  7  8  1  0  0  0  0
  8  9  2  0  0  0  0
 10 11  2  0  0  0  0
 10 15  1  0  0  0  0
 11 12  1  0  0  0  0
 12 13  2  0  0  0  0
 13  3  1  0  0  0  0
 13 14  1  0  0  0  0
 14 15  2  0  0  0  0
 16 17  2  0  0  0  0
 16 21  1  0  0  0  0
 17 18  1  0  0  0  0
 18 19  2  0  0  0  0
 19  5  1  0  0  0  0
 19 20  1  0  0  0  0
 20 21  2  0  0  0  0
 22  3  1  0  0  0  0
 23  3  1  0  0  0  0
 24  5  1  0  0  0  0
 25  5  1  0  0  0  0
M  END
>  <CHROM.1>
53.71422462,11.30072612,7.58463071,-176.10085837,-154.81211822,0.63074912
0.27126414,-1.01831357,3.07129494,-1.20817469,2.27225078

>  <Name>
1q8n_lig

>  <RI>
0

>  <Rbt.Current_Directory>
/home/itssahil/PROJECTS/Mol_Feturizer/New_Systems/rnas/1q8n

>  <Rbt.Executable>
rbdock ($Id: //depot/dev/client3/rdock/2013.1/src/exe/rbdock.cxx#4 $)

>  <Rbt.Library>
libRbt.so (2013.1, Build901 2013/11/27)

>  <Rbt.Parameter_File>
/export/apps/rDock/src/rDock_2013.1_src/data/scripts/dock_solv.prm

>  <Rbt.Receptor>
prm/pocket_docking_3.prm

>  <SCORE>
-53.1353

>  <SCORE.INTER>
-53.8164

>  <SCORE.INTER.CONST>
1

>  <SCORE.INTER.POLAR>
0

>  <SCORE.INTER.ROT>
5

>  <SCORE.INTER.SOLV>
10.245

>  <SCORE.INTER.VDW>
-46.2259

>  <SCORE.INTER.norm>
-2.15266

>  <SCORE.INTRA>
0.681145

>  <SCORE.INTRA.DIHEDRAL>
2.37245

>  <SCORE.INTRA.DIHEDRAL.0>
2.1627

>  <SCORE.INTRA.POLAR>
0

>  <SCORE.INTRA.POLAR.0>
0

>  <SCORE.INTRA.REPUL>
0

>  <SCORE.INTRA.REPUL.0>
0

>  <SCORE.INTRA.SOLV>
0.0279283

>  <SCORE.INTRA.SOLV.lig_0>
-5.95779

>  <SCORE.INTRA.VDW>
-0.519043

>  <SCORE.INTRA.VDW.0>
3.81702

>  <SCORE.INTRA.norm>
0.0272458

>  <SCORE.RESTR>
0

>  <SCORE.RESTR.CAVITY>
0

>  <SCORE.RESTR.norm>
0

>  <SCORE.SYSTEM>
0

>  <SCORE.SYSTEM.CONST>
0

>  <SCORE.SYSTEM.DIHEDRAL>
0

>  <SCORE.SYSTEM.SOLV>
0

>  <SCORE.SYSTEM.norm>
0

>  <SCORE.heavy>
25

>  <SCORE.norm>
-2.12541

>  <RMSD>
0.727

$$$$
1q8n_lig
 OpenBabel11021811403D
libRbt.so/2013.1/901 2013/11/27
 25 27  0  0  0  0  0  0  0  0999 V2000
    0.6572    0.8452   -1.6556 C   0  0  0  0  0  0  0  0  0  0  0  0
    0.5814    1.9759   -2.8308 C   0  0  0  0  0  0  0  0  0  0  0  0
    2.6385   -4.5875   -3.0634 N   0  0  0  0  0  0  0  0  0  0  0  0
    1.2112    3.1730   -2.7582 C   0  0  0  0  0  0  0  0  0  0  0  0
   -1.1267    2.2322    3.8948 N   0  0  0  0  0  0  0  0  0  0  0  0
    1.1118    4.1742   -3.8452 C   0  0  0  0  0  0  0  0  0  0  0  0
    0.3768    3.8984   -4.9469 C   0  0  0  0  0  0  0  0  0  0  0  0
   -0.2974    2.6252   -5.0477 C   0  0  0  0  0  0  0  0  0  0  0  0
   -0.2017    1.7315   -4.0601 C   0  0  0  0  0  0  0  0  0  0  0  0
    1.2008   -0.6420   -2.0465 C   0  0  0  0  0  0  0  0  0  0  0  0
    1.8397   -0.8688   -3.2130 C   0  0  0  0  0  0  0  0  0  0  0  0
    2.3427   -2.2199   -3.5864 C   0  0  0  0  0  0  0  0  0  0  0  0
    2.1681   -3.2723   -2.7430 C   0  0  0  0  0  0  0  0  0  0  0  0
    1.4732   -3.0392   -1.4628 C   0  0  0  0  0  0  0  0  0  0  0  0
    1.0252   -1.8170   -1.1433 C   0  0  0  0  0  0  0  0  0  0  0  0
    0.1979    1.1748   -0.0970 C   0  0  0  0  0  0  0  0  0  0  0  0
   -0.4867    2.4754    0.2213 C   0  0  0  0  0  0  0  0  0  0  0  0
   -0.8902    2.7977    1.4532 C   0  0  0  0  0  0  0  0  0  0  0  0
   -0.6800    1.8806    2.5795 C   0  0  0  0  0  0  0  0  0  0  0  0
   -0.0645    0.7022    2.3494 C   0  0  0  0  0  0  0  0  0  0  0  0
    0.3920    0.3284    0.9685 C   0  0  0  0  0  0  0  0  0  0  0  0
    3.6494   -4.8178   -4.0501 C   0  0  0  0  0  0  0  0  0  0  0  0
    2.0990   -5.7279   -2.3899 C   0  0  0  0  0  0  0  0  0  0  0  0
   -0.8083    1.3961    5.0164 C   0  0  0  0  0  0  0  0  0  0  0  0
   -1.8988    3.4315    4.1294 C   0  0  0  0  0  0  0  0  0  0  0  0
  1  2  1  0  0  0  0
  1 10  1  0  0  0  0
  1 16  1  0  0  0  0
  2  4  2  0  0  0  0
  2  9  1  0  0  0  0
  4  6  1  0  0  0  0
  6  7  2  0  0  0  0
  7  8  1  0  0  0  0
  8  9  2  0  0  0  0
 10 11  2  0  0  0  0
 10 15  1  0  0  0  0
 11 12  1  0  0  0  0
 12 13  2  0  0  0  0
 13  3  1  0  0  0  0
 13 14  1  0  0  0  0
 14 15  2  0  0  0  0
 16 17  2  0  0  0  0
 16 21  1  0  0  0  0
 17 18  1  0  0  0  0
 18 19  2  0  0  0  0
 19  5  1  0  0  0  0
 19 20  1  0  0  0  0
 20 21  2  0  0  0  0
 22  3  1  0  0  0  0
 23  3  1  0  0  0  0
 24  5  1  0  0  0  0
 25  5  1  0  0  0  0
M  END
>  <CHROM.1>
-123.19312161,14.17131647,8.78401499,19.51116935,-173.99343617,0.66292337
0.26391243,-1.08128557,0.14357772,1.20093226,-0.91878026

>  <Name>
1q8n_lig

>  <RI>
0

>  <Rbt.Current_Directory>
/home/itssahil/PROJECTS/Mol_Feturizer/New_Systems/rnas/1q8n

>  <Rbt.Executable>
rbdock ($Id: //depot/dev/client3/rdock/2013.1/src/exe/rbdock.cxx#4 $)

>  <Rbt.Library>
libRbt.so (2013.1, Build901 2013/11/27)

>  <Rbt.Parameter_File>
/export/apps/rDock/src/rDock_2013.1_src/data/scripts/dock_solv.prm

>  <Rbt.Receptor>
prm/pocket_docking_3.prm

>  <SCORE>
-53.9782

>  <SCORE.INTER>
-54.4976

>  <SCORE.INTER.CONST>
1

>  <SCORE.INTER.POLAR>
0

>  <SCORE.INTER.ROT>
5

>  <SCORE.INTER.SOLV>
10.0614

>  <SCORE.INTER.VDW>
-46.6188

>  <SCORE.INTER.norm>
-2.1799

>  <SCORE.INTRA>
0.519351

>  <SCORE.INTRA.DIHEDRAL>
1.56431

>  <SCORE.INTRA.DIHEDRAL.0>
2.1627

>  <SCORE.INTRA.POLAR>
0

>  <SCORE.INTRA.POLAR.0>
0

>  <SCORE.INTRA.REPUL>
0

>  <SCORE.INTRA.REPUL.0>
0

>  <SCORE.INTRA.SOLV>
0.0216974

>  <SCORE.INTRA.SOLV.lig_0>
-5.95779

>  <SCORE.INTRA.VDW>
-0.273651

>  <SCORE.INTRA.VDW.0>
3.81702

>  <SCORE.INTRA.norm>
0.0207741

>  <SCORE.RESTR>
0

>  <SCORE.RESTR.CAVITY>
0

>  <SCORE.RESTR.norm>
0

>  <SCORE.SYSTEM>
0

>  <SCORE.SYSTEM.CONST>
0

>  <SCORE.SYSTEM.DIHEDRAL>
0

>  <SCORE.SYSTEM.SOLV>
0

>  <SCORE.SYSTEM.norm>
0

>  <SCORE.heavy>
25

>  <SCORE.norm>
-2.15913

>  <RMSD>
0.727

$$$$
1q8n_lig
 OpenBabel11021811403D
libRbt.so/2013.1/901 2013/11/27
 25 27  0  0  0  0  0  0  0  0999 V2000
    0.6332    0.8337   -1.5871 C   0  0  0  0  0  0  0  0  0  0  0  0
    0.6093    1.9990   -2.7303 C   0  0  0  0  0  0  0  0  0  0  0  0
   -1.1653    2.2538    3.9057 N   0  0  0  0  0  0  0  0  0  0  0  0
    1.1736    3.2194   -2.5656 C   0  0  0  0  0  0  0  0  0  0  0  0
    2.5805   -4.6537   -3.0049 N   0  0  0  0  0  0  0  0  0  0  0  0
    1.1244    4.2514   -3.6269 C   0  0  0  0  0  0  0  0  0  0  0  0
    0.5038    3.9810   -4.7981 C   0  0  0  0  0  0  0  0  0  0  0  0
   -0.0986    2.6835   -4.9972 C   0  0  0  0  0  0  0  0  0  0  0  0
   -0.0492    1.7621   -4.0319 C   0  0  0  0  0  0  0  0  0  0  0  0
    0.1417    1.2179   -0.0801 C   0  0  0  0  0  0  0  0  0  0  0  0
    0.4864    0.4610    0.9823 C   0  0  0  0  0  0  0  0  0  0  0  0
    0.0468    0.7966    2.3650 C   0  0  0  0  0  0  0  0  0  0  0  0
   -0.7230    1.8946    2.5907 C   0  0  0  0  0  0  0  0  0  0  0  0
   -1.1061    2.7332    1.4392 C   0  0  0  0  0  0  0  0  0  0  0  0
   -0.7033    2.4156    0.2009 C   0  0  0  0  0  0  0  0  0  0  0  0
    1.1410   -0.7083   -1.9236 C   0  0  0  0  0  0  0  0  0  0  0  0
    1.7811   -1.0116   -3.2502 C   0  0  0  0  0  0  0  0  0  0  0  0
    2.2202   -2.2294   -3.5796 C   0  0  0  0  0  0  0  0  0  0  0  0
    2.0961   -3.3540   -2.6450 C   0  0  0  0  0  0  0  0  0  0  0  0
    1.5233   -3.1372   -1.4427 C   0  0  0  0  0  0  0  0  0  0  0  0
    1.0274   -1.7722   -1.0607 C   0  0  0  0  0  0  0  0  0  0  0  0
   -1.9090    3.4497    4.1613 C   0  0  0  0  0  0  0  0  0  0  0  0
   -0.8694    1.4075    5.0199 C   0  0  0  0  0  0  0  0  0  0  0  0
    3.6186   -4.7949   -3.9850 C   0  0  0  0  0  0  0  0  0  0  0  0
    2.0467   -5.8493   -2.3925 C   0  0  0  0  0  0  0  0  0  0  0  0
  1  2  1  0  0  0  0
  1 10  1  0  0  0  0
  1 16  1  0  0  0  0
  2  4  2  0  0  0  0
  2  9  1  0  0  0  0
  4  6  1  0  0  0  0
  6  7  2  0  0  0  0
  7  8  1  0  0  0  0
  8  9  2  0  0  0  0
 10 11  2  0  0  0  0
 10 15  1  0  0  0  0
 11 12  1  0  0  0  0
 12 13  2  0  0  0  0
 13  3  1  0  0  0  0
 13 14  1  0  0  0  0
 14 15  2  0  0  0  0
 16 17  2  0  0  0  0
 16 21  1  0  0  0  0
 17 18  1  0  0  0  0
 18 19  2  0  0  0  0
 19  5  1  0  0  0  0
 19 20  1  0  0  0  0
 20 21  2  0  0  0  0
 22  3  1  0  0  0  0
 23  3  1  0  0  0  0
 24  5  1  0  0  0  0
 25  5  1  0  0  0  0
M  END
>  <CHROM.1>
51.11590397,-160.49641715,8.89774268,176.24240461,24.52378832,0.64733390
0.26354392,-1.03069244,3.07389332,-1.20469441,2.27750726

>  <Name>
1q8n_lig

>  <RI>
0

>  <Rbt.Current_Directory>
/home/itssahil/PROJECTS/Mol_Feturizer/New_Systems/rnas/1q8n

>  <Rbt.Executable>
rbdock ($Id: //depot/dev/client3/rdock/2013.1/src/exe/rbdock.cxx#4 $)

>  <Rbt.Library>
libRbt.so (2013.1, Build901 2013/11/27)

>  <Rbt.Parameter_File>
/export/apps/rDock/src/rDock_2013.1_src/data/scripts/dock_solv.prm

>  <Rbt.Receptor>
prm/blind_docking_60.prm

>  <SCORE>
-52.9107

>  <SCORE.INTER>
-53.4698

>  <SCORE.INTER.CONST>
1

>  <SCORE.INTER.POLAR>
0

>  <SCORE.INTER.ROT>
5

>  <SCORE.INTER.SOLV>
10.2298

>  <SCORE.INTER.VDW>
-45.9898

>  <SCORE.INTER.norm>
-2.13879

>  <SCORE.INTRA>
0.559072

>  <SCORE.INTRA.DIHEDRAL>
2.25608

>  <SCORE.INTRA.DIHEDRAL.0>
2.1627

>  <SCORE.INTRA.POLAR>
0

>  <SCORE.INTRA.POLAR.0>
0

>  <SCORE.INTRA.REPUL>
0

>  <SCORE.INTRA.REPUL.0>
0

>  <SCORE.INTRA.SOLV>
0.02526

>  <SCORE.INTRA.SOLV.lig_0>
-5.95779

>  <SCORE.INTRA.VDW>
-0.5816

>  <SCORE.INTRA.VDW.0>
3.81702

>  <SCORE.INTRA.norm>
0.0223629

>  <SCORE.RESTR>
0

>  <SCORE.RESTR.CAVITY>
0

>  <SCORE.RESTR.norm>
0

>  <SCORE.SYSTEM>
0

>  <SCORE.SYSTEM.CONST>
0

>  <SCORE.SYSTEM.DIHEDRAL>
0

>  <SCORE.SYSTEM.SOLV>
0

>  <SCORE.SYSTEM.norm>
0

>  <SCORE.heavy>
25

>  <SCORE.norm>
-2.11643

>  <RMSD>
0.728

$$$$
1q8n_lig
 OpenBabel11021811403D
libRbt.so/2013.1/901 2013/11/27
 25 27  0  0  0  0  0  0  0  0999 V2000
    0.6110    0.8287   -1.6196 C   0  0  0  0  0  0  0  0  0  0  0  0
    0.5301    1.9525   -2.8011 C   0  0  0  0  0  0  0  0  0  0  0  0
    2.6000   -4.6079   -3.0012 N   0  0  0  0  0  0  0  0  0  0  0  0
   -0.1089    1.7542   -3.9789 C   0  0  0  0  0  0  0  0  0  0  0  0
   -1.1809    2.2292    3.9249 N   0  0  0  0  0  0  0  0  0  0  0  0
   -0.1538    2.7990   -5.0278 C   0  0  0  0  0  0  0  0  0  0  0  0
    0.4542    3.9888   -4.8168 C   0  0  0  0  0  0  0  0  0  0  0  0
    1.1355    4.2237   -3.5651 C   0  0  0  0  0  0  0  0  0  0  0  0
    1.1706    3.2731   -2.6280 C   0  0  0  0  0  0  0  0  0  0  0  0
    1.1565   -0.6597   -2.0034 C   0  0  0  0  0  0  0  0  0  0  0  0
    1.7598   -0.9000   -3.1861 C   0  0  0  0  0  0  0  0  0  0  0  0
    2.2639   -2.2524   -3.5533 C   0  0  0  0  0  0  0  0  0  0  0  0
    2.1270   -3.2921   -2.6875 C   0  0  0  0  0  0  0  0  0  0  0  0
    1.4714   -3.0441   -1.3895 C   0  0  0  0  0  0  0  0  0  0  0  0
    1.0217   -1.8210   -1.0758 C   0  0  0  0  0  0  0  0  0  0  0  0
    0.1549    1.1663   -0.0618 C   0  0  0  0  0  0  0  0  0  0  0  0
   -0.6425    2.4072    0.2313 C   0  0  0  0  0  0  0  0  0  0  0  0
   -1.0491    2.7317    1.4616 C   0  0  0  0  0  0  0  0  0  0  0  0
   -0.7303    1.8768    2.6110 C   0  0  0  0  0  0  0  0  0  0  0  0
   -0.0114    0.7539    2.4038 C   0  0  0  0  0  0  0  0  0  0  0  0
    0.4498    0.3781    1.0251 C   0  0  0  0  0  0  0  0  0  0  0  0
    3.6067   -4.8418   -3.9913 C   0  0  0  0  0  0  0  0  0  0  0  0
    2.0672   -5.7454   -2.3175 C   0  0  0  0  0  0  0  0  0  0  0  0
   -0.9046    1.3709    5.0408 C   0  0  0  0  0  0  0  0  0  0  0  0
   -1.9150    3.4513    4.1635 C   0  0  0  0  0  0  0  0  0  0  0  0
  1  2  1  0  0  0  0
  1 10  1  0  0  0  0
  1 16  1  0  0  0  0
  2  4  2  0  0  0  0
  2  9  1  0  0  0  0
  4  6  1  0  0  0  0
  6  7  2  0  0  0  0
  7  8  1  0  0  0  0
  8  9  2  0  0  0  0
 10 11  2  0  0  0  0
 10 15  1  0  0  0  0
 11 12  1  0  0  0  0
 12 13  2  0  0  0  0
 13  3  1  0  0  0  0
 13 14  1  0  0  0  0
 14 15  2  0  0  0  0
 16 17  2  0  0  0  0
 16 21  1  0  0  0  0
 17 18  1  0  0  0  0
 18 19  2  0  0  0  0
 19  5  1  0  0  0  0
 19 20  1  0  0  0  0
 20 21  2  0  0  0  0
 22  3  1  0  0  0  0
 23  3  1  0  0  0  0
 24  5  1  0  0  0  0
 25  5  1  0  0  0  0
M  END
>  <CHROM.1>
52.95688229,12.29820671,14.39413883,21.22430773,178.03150121,0.63751206,0.27051439
-1.02194537,0.08792851,1.20095570,-0.87557982

>  <Name>
1q8n_lig

>  <RI>
0

>  <Rbt.Current_Directory>
/home/itssahil/PROJECTS/Mol_Feturizer/New_Systems/rnas/1q8n

>  <Rbt.Executable>
rbdock ($Id: //depot/dev/client3/rdock/2013.1/src/exe/rbdock.cxx#4 $)

>  <Rbt.Library>
libRbt.so (2013.1, Build901 2013/11/27)

>  <Rbt.Parameter_File>
/export/apps/rDock/src/rDock_2013.1_src/data/scripts/dock_solv.prm

>  <Rbt.Receptor>
prm/pocket_docking_4.prm

>  <SCORE>
-53.4418

>  <SCORE.INTER>
-53.9907

>  <SCORE.INTER.CONST>
1

>  <SCORE.INTER.POLAR>
0

>  <SCORE.INTER.ROT>
5

>  <SCORE.INTER.SOLV>
10.1781

>  <SCORE.INTER.VDW>
-46.3198

>  <SCORE.INTER.norm>
-2.15963

>  <SCORE.INTRA>
0.548935

>  <SCORE.INTRA.DIHEDRAL>
1.68923

>  <SCORE.INTRA.DIHEDRAL.0>
2.1627

>  <SCORE.INTRA.POLAR>
0

>  <SCORE.INTRA.POLAR.0>
0

>  <SCORE.INTRA.REPUL>
0

>  <SCORE.INTRA.REPUL.0>
0

>  <SCORE.INTRA.SOLV>
0.0248179

>  <SCORE.INTRA.SOLV.lig_0>
-5.95779

>  <SCORE.INTRA.VDW>
-0.308089

>  <SCORE.INTRA.VDW.0>
3.81702

>  <SCORE.INTRA.norm>
0.0219574

>  <SCORE.RESTR>
0

>  <SCORE.RESTR.CAVITY>
0

>  <SCORE.RESTR.norm>
0

>  <SCORE.SYSTEM>
0

>  <SCORE.SYSTEM.CONST>
0

>  <SCORE.SYSTEM.DIHEDRAL>
0

>  <SCORE.SYSTEM.SOLV>
0

>  <SCORE.SYSTEM.norm>
0

>  <SCORE.heavy>
25

>  <SCORE.norm>
-2.13767

>  <RMSD>
0.728

$$$$
1q8n_lig
 OpenBabel11021811403D
libRbt.so/2013.1/901 2013/11/27
 25 27  0  0  0  0  0  0  0  0999 V2000
    0.6699    0.8391   -1.6410 C   0  0  0  0  0  0  0  0  0  0  0  0
    0.6052    1.9712   -2.8155 C   0  0  0  0  0  0  0  0  0  0  0  0
    2.6073   -4.6090   -3.0504 N   0  0  0  0  0  0  0  0  0  0  0  0
    1.2460    3.1624   -2.7416 C   0  0  0  0  0  0  0  0  0  0  0  0
   -1.1219    2.2279    3.9064 N   0  0  0  0  0  0  0  0  0  0  0  0
    1.1565    4.1653   -3.8279 C   0  0  0  0  0  0  0  0  0  0  0  0
    0.4196    3.8971   -4.9303 C   0  0  0  0  0  0  0  0  0  0  0  0
   -0.2662    2.6302   -5.0324 C   0  0  0  0  0  0  0  0  0  0  0  0
   -0.1793    1.7350   -4.0454 C   0  0  0  0  0  0  0  0  0  0  0  0
    1.2013   -0.6524   -2.0324 C   0  0  0  0  0  0  0  0  0  0  0  0
    1.8179   -0.8888   -3.2090 C   0  0  0  0  0  0  0  0  0  0  0  0
    2.3095   -2.2439   -3.5830 C   0  0  0  0  0  0  0  0  0  0  0  0
    2.1471   -3.2903   -2.7298 C   0  0  0  0  0  0  0  0  0  0  0  0
    1.4767   -3.0467   -1.4386 C   0  0  0  0  0  0  0  0  0  0  0  0
    1.0386   -1.8211   -1.1186 C   0  0  0  0  0  0  0  0  0  0  0  0
    0.2113    1.1713   -0.0828 C   0  0  0  0  0  0  0  0  0  0  0  0
   -0.5344    2.4412    0.2222 C   0  0  0  0  0  0  0  0  0  0  0  0
   -0.9403    2.7635    1.4533 C   0  0  0  0  0  0  0  0  0  0  0  0
   -0.6723    1.8771    2.5918 C   0  0  0  0  0  0  0  0  0  0  0  0
   -0.0008    0.7273    2.3738 C   0  0  0  0  0  0  0  0  0  0  0  0
    0.4591    0.3537    0.9940 C   0  0  0  0  0  0  0  0  0  0  0  0
    3.6129   -4.8474   -4.0405 C   0  0  0  0  0  0  0  0  0  0  0  0
    2.0624   -5.7449   -2.3736 C   0  0  0  0  0  0  0  0  0  0  0  0
   -0.8095    1.3890    5.0276 C   0  0  0  0  0  0  0  0  0  0  0  0
   -1.8911    3.4291    4.1406 C   0  0  0  0  0  0  0  0  0  0  0  0
  1  2  1  0  0  0  0
  1 10  1  0  0  0  0
  1 16  1  0  0  0  0
  2  4  2  0  0  0  0
  2  9  1  0  0  0  0
  4  6  1  0  0  0  0
  6  7  2  0  0  0  0
  7  8  1  0  0  0  0
  8  9  2  0  0  0  0
 10 11  2  0  0  0  0
 10 15  1  0  0  0  0
 11 12  1  0  0  0  0
 12 13  2  0  0  0  0
 13  3  1  0  0  0  0
 13 14  1  0  0  0  0
 14 15  2  0  0  0  0
 16 17  2  0  0  0  0
 16 21  1  0  0  0  0
 17 18  1  0  0  0  0
 18 19  2  0  0  0  0
 19  5  1  0  0  0  0
 19 20  1  0  0  0  0
 20 21  2  0  0  0  0
 22  3  1  0  0  0  0
 23  3  1  0  0  0  0
 24  5  1  0  0  0  0
 25  5  1  0  0  0  0
M  END
>  <CHROM.1>
-123.13477474,12.93141403,12.35833593,20.43328536,-177.31425833,0.66689152
0.25517964,-1.06757304,0.13138780,1.20476730,-0.90610906

>  <Name>
1q8n_lig

>  <RI>
0

>  <Rbt.Current_Directory>
/home/itssahil/PROJECTS/Mol_Feturizer/New_Systems/rnas/1q8n

>  <Rbt.Executable>
rbdock ($Id: //depot/dev/client3/rdock/2013.1/src/exe/rbdock.cxx#4 $)

>  <Rbt.Library>
libRbt.so (2013.1, Build901 2013/11/27)

>  <Rbt.Parameter_File>
/export/apps/rDock/src/rDock_2013.1_src/data/scripts/dock_solv.prm

>  <Rbt.Receptor>
prm/pocket_docking_4.prm

>  <SCORE>
-53.9978

>  <SCORE.INTER>
-54.5095

>  <SCORE.INTER.CONST>
1

>  <SCORE.INTER.POLAR>
0

>  <SCORE.INTER.ROT>
5

>  <SCORE.INTER.SOLV>
10.0599

>  <SCORE.INTER.VDW>
-46.6263

>  <SCORE.INTER.norm>
-2.18038

>  <SCORE.INTRA>
0.511638

>  <SCORE.INTRA.DIHEDRAL>
1.58457

>  <SCORE.INTRA.DIHEDRAL.0>
2.1627

>  <SCORE.INTRA.POLAR>
0

>  <SCORE.INTRA.POLAR.0>
0

>  <SCORE.INTRA.REPUL>
0

>  <SCORE.INTRA.REPUL.0>
0

>  <SCORE.INTRA.SOLV>
0.0205927

>  <SCORE.INTRA.SOLV.lig_0>
-5.95779

>  <SCORE.INTRA.VDW>
-0.290942

>  <SCORE.INTRA.VDW.0>
3.81702

>  <SCORE.INTRA.norm>
0.0204655

>  <SCORE.RESTR>
0

>  <SCORE.RESTR.CAVITY>
0

>  <SCORE.RESTR.norm>
0

>  <SCORE.SYSTEM>
0

>  <SCORE.SYSTEM.CONST>
0

>  <SCORE.SYSTEM.DIHEDRAL>
0

>  <SCORE.SYSTEM.SOLV>
0

>  <SCORE.SYSTEM.norm>
0

>  <SCORE.heavy>
25

>  <SCORE.norm>
-2.15991

>  <RMSD>
0.728

$$$$
1q8n_lig
 OpenBabel11021811403D
libRbt.so/2013.1/901 2013/11/27
 25 27  0  0  0  0  0  0  0  0999 V2000
    0.6090    0.8316   -1.6262 C   0  0  0  0  0  0  0  0  0  0  0  0
    0.5281    1.9512   -2.8117 C   0  0  0  0  0  0  0  0  0  0  0  0
    2.5944   -4.6110   -2.9893 N   0  0  0  0  0  0  0  0  0  0  0  0
   -0.0961    1.7424   -3.9957 C   0  0  0  0  0  0  0  0  0  0  0  0
   -1.1617    2.2665    3.9162 N   0  0  0  0  0  0  0  0  0  0  0  0
   -0.1416    2.7837   -5.0481 C   0  0  0  0  0  0  0  0  0  0  0  0
    0.4507    3.9810   -4.8340 C   0  0  0  0  0  0  0  0  0  0  0  0
    1.1159    4.2269   -3.5759 C   0  0  0  0  0  0  0  0  0  0  0  0
    1.1517    3.2794   -2.6357 C   0  0  0  0  0  0  0  0  0  0  0  0
    1.1534   -0.6585   -2.0050 C   0  0  0  0  0  0  0  0  0  0  0  0
    1.7354   -0.9086   -3.1962 C   0  0  0  0  0  0  0  0  0  0  0  0
    2.2382   -2.2626   -3.5590 C   0  0  0  0  0  0  0  0  0  0  0  0
    2.1219   -3.2939   -2.6802 C   0  0  0  0  0  0  0  0  0  0  0  0
    1.4897   -3.0351   -1.3727 C   0  0  0  0  0  0  0  0  0  0  0  0
    1.0409   -1.8106   -1.0631 C   0  0  0  0  0  0  0  0  0  0  0  0
    0.1540    1.1751   -0.0694 C   0  0  0  0  0  0  0  0  0  0  0  0
   -0.5425    2.4723    0.2368 C   0  0  0  0  0  0  0  0  0  0  0  0
   -0.9432    2.8052    1.4668 C   0  0  0  0  0  0  0  0  0  0  0  0
   -0.7179    1.9039    2.6029 C   0  0  0  0  0  0  0  0  0  0  0  0
   -0.0913    0.7292    2.3837 C   0  0  0  0  0  0  0  0  0  0  0  0
    0.3622    0.3436    1.0052 C   0  0  0  0  0  0  0  0  0  0  0  0
    2.0729   -5.7796   -2.3482 C   0  0  0  0  0  0  0  0  0  0  0  0
    3.6205   -4.7953   -3.9681 C   0  0  0  0  0  0  0  0  0  0  0  0
   -0.8538    1.4321    5.0419 C   0  0  0  0  0  0  0  0  0  0  0  0
   -1.9204    3.4755    4.1445 C   0  0  0  0  0  0  0  0  0  0  0  0
  1  2  1  0  0  0  0
  1 10  1  0  0  0  0
  1 16  1  0  0  0  0
  2  4  2  0  0  0  0
  2  9  1  0  0  0  0
  4  6  1  0  0  0  0
  6  7  2  0  0  0  0
  7  8  1  0  0  0  0
  8  9  2  0  0  0  0
 10 11  2  0  0  0  0
 10 15  1  0  0  0  0
 11 12  1  0  0  0  0
 12 13  2  0  0  0  0
 13  3  1  0  0  0  0
 13 14  1  0  0  0  0
 14 15  2  0  0  0  0
 16 17  2  0  0  0  0
 16 21  1  0  0  0  0
 17 18  1  0  0  0  0
 18 19  2  0  0  0  0
 19  5  1  0  0  0  0
 19 20  1  0  0  0  0
 20 21  2  0  0  0  0
 22  3  1  0  0  0  0
 23  3  1  0  0  0  0
 24  5  1  0  0  0  0
 25  5  1  0  0  0  0
M  END
>  <CHROM.1>
52.01890777,11.15728629,9.33407658,-156.35515976,-175.34714227,0.64136579
0.27991899,-1.02746751,0.08837759,1.20404240,-0.88051771

>  <Name>
1q8n_lig

>  <RI>
0

>  <Rbt.Current_Directory>
/home/itssahil/PROJECTS/Mol_Feturizer/New_Systems/rnas/1q8n

>  <Rbt.Executable>
rbdock ($Id: //depot/dev/client3/rdock/2013.1/src/exe/rbdock.cxx#4 $)

>  <Rbt.Library>
libRbt.so (2013.1, Build901 2013/11/27)

>  <Rbt.Parameter_File>
/export/apps/rDock/src/rDock_2013.1_src/data/scripts/dock_solv.prm

>  <Rbt.Receptor>
prm/blind_docking_40.prm

>  <SCORE>
-53.3056

>  <SCORE.INTER>
-53.9984

>  <SCORE.INTER.CONST>
1

>  <SCORE.INTER.POLAR>
0

>  <SCORE.INTER.ROT>
5

>  <SCORE.INTER.SOLV>
10.1964

>  <SCORE.INTER.VDW>
-46.3311

>  <SCORE.INTER.norm>
-2.15994

>  <SCORE.INTRA>
0.692841

>  <SCORE.INTRA.DIHEDRAL>
2.1397

>  <SCORE.INTRA.DIHEDRAL.0>
2.1627

>  <SCORE.INTRA.POLAR>
0

>  <SCORE.INTRA.POLAR.0>
0

>  <SCORE.INTRA.REPUL>
0

>  <SCORE.INTRA.REPUL.0>
0

>  <SCORE.INTRA.SOLV>
0.0295441

>  <SCORE.INTRA.SOLV.lig_0>
-5.95779

>  <SCORE.INTRA.VDW>
-0.39178

>  <SCORE.INTRA.VDW.0>
3.81702

>  <SCORE.INTRA.norm>
0.0277136

>  <SCORE.RESTR>
0

>  <SCORE.RESTR.CAVITY>
0

>  <SCORE.RESTR.norm>
0

>  <SCORE.SYSTEM>
0

>  <SCORE.SYSTEM.CONST>
0

>  <SCORE.SYSTEM.DIHEDRAL>
0

>  <SCORE.SYSTEM.SOLV>
0

>  <SCORE.SYSTEM.norm>
0

>  <SCORE.heavy>
25

>  <SCORE.norm>
-2.13222

>  <RMSD>
0.729

$$$$
1q8n_lig
 OpenBabel11021811403D
libRbt.so/2013.1/901 2013/11/27
 25 27  0  0  0  0  0  0  0  0999 V2000
    0.5913    0.8443   -1.5963 C   0  0  0  0  0  0  0  0  0  0  0  0
    0.5565    1.9979   -2.7510 C   0  0  0  0  0  0  0  0  0  0  0  0
   -1.1886    2.2718    3.9006 N   0  0  0  0  0  0  0  0  0  0  0  0
    0.0324    1.8048   -3.9850 C   0  0  0  0  0  0  0  0  0  0  0  0
    2.5721   -4.6441   -2.9630 N   0  0  0  0  0  0  0  0  0  0  0  0
    0.0259    2.8774   -5.0065 C   0  0  0  0  0  0  0  0  0  0  0  0
    0.5531    4.0880   -4.7124 C   0  0  0  0  0  0  0  0  0  0  0  0
    1.1111    4.3173   -3.4002 C   0  0  0  0  0  0  0  0  0  0  0  0
    1.1127    3.3417   -2.4884 C   0  0  0  0  0  0  0  0  0  0  0  0
    0.1024    1.2405   -0.0916 C   0  0  0  0  0  0  0  0  0  0  0  0
   -0.6249    2.3536    0.1371 C   0  0  0  0  0  0  0  0  0  0  0  0
   -1.0799    2.7309    1.5040 C   0  0  0  0  0  0  0  0  0  0  0  0
   -0.7687    1.9458    2.5698 C   0  0  0  0  0  0  0  0  0  0  0  0
    0.0242    0.7242    2.3351 C   0  0  0  0  0  0  0  0  0  0  0  0
    0.4271    0.4004    1.0984 C   0  0  0  0  0  0  0  0  0  0  0  0
    1.1074   -0.6978   -1.9191 C   0  0  0  0  0  0  0  0  0  0  0  0
    1.7718   -1.0039   -3.2331 C   0  0  0  0  0  0  0  0  0  0  0  0
    2.2186   -2.2220   -3.5511 C   0  0  0  0  0  0  0  0  0  0  0  0
    2.0794   -3.3441   -2.6156 C   0  0  0  0  0  0  0  0  0  0  0  0
    1.4846   -3.1248   -1.4245 C   0  0  0  0  0  0  0  0  0  0  0  0
    0.9799   -1.7595   -1.0554 C   0  0  0  0  0  0  0  0  0  0  0  0
   -0.8879    1.4359    5.0228 C   0  0  0  0  0  0  0  0  0  0  0  0
   -1.9340    3.4672    4.1467 C   0  0  0  0  0  0  0  0  0  0  0  0
    2.0292   -5.8161   -2.3385 C   0  0  0  0  0  0  0  0  0  0  0  0
    3.6166   -4.8120   -3.9479 C   0  0  0  0  0  0  0  0  0  0  0  0
  1  2  1  0  0  0  0
  1 10  1  0  0  0  0
  1 16  1  0  0  0  0
  2  4  2  0  0  0  0
  2  9  1  0  0  0  0
  4  6  1  0  0  0  0
  6  7  2  0  0  0  0
  7  8  1  0  0  0  0
  8  9  2  0  0  0  0
 10 11  2  0  0  0  0
 10 15  1  0  0  0  0
 11 12  1  0  0  0  0
 12 13  2  0  0  0  0
 13  3  1  0  0  0  0
 13 14  1  0  0  0  0
 14 15  2  0  0  0  0
 16 17  2  0  0  0  0
 16 21  1  0  0  0  0
 17 18  1  0  0  0  0
 18 19  2  0  0  0  0
 19  5  1  0  0  0  0
 19 20  1  0  0  0  0
 20 21  2  0  0  0  0
 22  3  1  0  0  0  0
 23  3  1  0  0  0  0
 24  5  1  0  0  0  0
 25  5  1  0  0  0  0
M  END
>  <CHROM.1>
-132.64064391,16.82618987,10.21397322,178.69849206,-156.44523712,0.63883732
0.28610907,-1.00359196,3.12043560,-1.20452246,2.31212155

>  <Name>
1q8n_lig

>  <RI>
0

>  <Rbt.Current_Directory>
/home/itssahil/PROJECTS/Mol_Feturizer/New_Systems/rnas/1q8n

>  <Rbt.Executable>
rbdock ($Id: //depot/dev/client3/rdock/2013.1/src/exe/rbdock.cxx#4 $)

>  <Rbt.Library>
libRbt.so (2013.1, Build901 2013/11/27)

>  <Rbt.Parameter_File>
/export/apps/rDock/src/rDock_2013.1_src/data/scripts/dock_solv.prm

>  <Rbt.Receptor>
prm/blind_docking_80.prm

>  <SCORE>
-52.1637

>  <SCORE.INTER>
-52.7602

>  <SCORE.INTER.CONST>
1

>  <SCORE.INTER.POLAR>
0

>  <SCORE.INTER.ROT>
5

>  <SCORE.INTER.SOLV>
10.3153

>  <SCORE.INTER.VDW>
-45.5452

>  <SCORE.INTER.norm>
-2.11041

>  <SCORE.INTRA>
0.596529

>  <SCORE.INTRA.DIHEDRAL>
2.04522

>  <SCORE.INTRA.DIHEDRAL.0>
2.1627

>  <SCORE.INTRA.POLAR>
0

>  <SCORE.INTRA.POLAR.0>
0

>  <SCORE.INTRA.REPUL>
0

>  <SCORE.INTRA.REPUL.0>
0

>  <SCORE.INTRA.SOLV>
0.0325792

>  <SCORE.INTRA.SOLV.lig_0>
-5.95779

>  <SCORE.INTRA.VDW>
-0.442372

>  <SCORE.INTRA.VDW.0>
3.81702

>  <SCORE.INTRA.norm>
0.0238612

>  <SCORE.RESTR>
0

>  <SCORE.RESTR.CAVITY>
0

>  <SCORE.RESTR.norm>
0

>  <SCORE.SYSTEM>
0

>  <SCORE.SYSTEM.CONST>
0

>  <SCORE.SYSTEM.DIHEDRAL>
0

>  <SCORE.SYSTEM.SOLV>
0

>  <SCORE.SYSTEM.norm>
0

>  <SCORE.heavy>
25

>  <SCORE.norm>
-2.08655

>  <RMSD>
0.730

$$$$
1q8n_lig
 OpenBabel11021811403D
libRbt.so/2013.1/901 2013/11/27
 25 27  0  0  0  0  0  0  0  0999 V2000
    0.6106    0.8400   -1.5957 C   0  0  0  0  0  0  0  0  0  0  0  0
    0.5802    1.9996   -2.7445 C   0  0  0  0  0  0  0  0  0  0  0  0
   -1.1749    2.2435    3.9056 N   0  0  0  0  0  0  0  0  0  0  0  0
    1.2035    3.1954   -2.6162 C   0  0  0  0  0  0  0  0  0  0  0  0
    2.5809   -4.6458   -2.9871 N   0  0  0  0  0  0  0  0  0  0  0  0
    1.1463    4.2234   -3.6811 C   0  0  0  0  0  0  0  0  0  0  0  0
    0.4578    3.9742   -4.8186 C   0  0  0  0  0  0  0  0  0  0  0  0
   -0.2086    2.7028   -4.9787 C   0  0  0  0  0  0  0  0  0  0  0  0
   -0.1511    1.7849   -4.0106 C   0  0  0  0  0  0  0  0  0  0  0  0
    0.1204    1.2297   -0.0897 C   0  0  0  0  0  0  0  0  0  0  0  0
   -0.5556    2.3721    0.1521 C   0  0  0  0  0  0  0  0  0  0  0  0
   -1.0108    2.7440    1.5204 C   0  0  0  0  0  0  0  0  0  0  0  0
   -0.7527    1.9238    2.5740 C   0  0  0  0  0  0  0  0  0  0  0  0
   -0.0164    0.6701    2.3247 C   0  0  0  0  0  0  0  0  0  0  0  0
    0.3877    0.3516    1.0870 C   0  0  0  0  0  0  0  0  0  0  0  0
    1.1236   -0.7016   -1.9256 C   0  0  0  0  0  0  0  0  0  0  0  0
    1.7913   -1.0021   -3.2392 C   0  0  0  0  0  0  0  0  0  0  0  0
    2.2358   -2.2195   -3.5627 C   0  0  0  0  0  0  0  0  0  0  0  0
    2.0906   -3.3465   -2.6340 C   0  0  0  0  0  0  0  0  0  0  0  0
    1.4927   -3.1323   -1.4435 C   0  0  0  0  0  0  0  0  0  0  0  0
    0.9905   -1.7678   -1.0684 C   0  0  0  0  0  0  0  0  0  0  0  0
   -0.8805    1.3998    5.0235 C   0  0  0  0  0  0  0  0  0  0  0  0
   -1.9164    3.4403    4.1568 C   0  0  0  0  0  0  0  0  0  0  0  0
    2.0554   -5.8177   -2.3477 C   0  0  0  0  0  0  0  0  0  0  0  0
    3.6056   -4.8132   -3.9929 C   0  0  0  0  0  0  0  0  0  0  0  0
  1  2  1  0  0  0  0
  1 10  1  0  0  0  0
  1 16  1  0  0  0  0
  2  4  2  0  0  0  0
  2  9  1  0  0  0  0
  4  6  1  0  0  0  0
  6  7  2  0  0  0  0
  7  8  1  0  0  0  0
  8  9  2  0  0  0  0
 10 11  2  0  0  0  0
 10 15  1  0  0  0  0
 11 12  1  0  0  0  0
 12 13  2  0  0  0  0
 13  3  1  0  0  0  0
 13 14  1  0  0  0  0
 14 15  2  0  0  0  0
 16 17  2  0  0  0  0
 16 21  1  0  0  0  0
 17 18  1  0  0  0  0
 18 19  2  0  0  0  0
 19  5  1  0  0  0  0
 19 20  1  0  0  0  0
 20 21  2  0  0  0  0
 22  3  1  0  0  0  0
 23  3  1  0  0  0  0
 24  5  1  0  0  0  0
 25  5  1  0  0  0  0
M  END
>  <CHROM.1>
54.92244710,13.97029024,10.31713751,-178.55947914,-157.94396985,0.63469797
0.25542978,-1.02858523,3.06264568,-1.20380233,2.26904447

>  <Name>
1q8n_lig

>  <RI>
0

>  <Rbt.Current_Directory>
/home/itssahil/PROJECTS/Mol_Feturizer/New_Systems/rnas/1q8n

>  <Rbt.Executable>
rbdock ($Id: //depot/dev/client3/rdock/2013.1/src/exe/rbdock.cxx#4 $)

>  <Rbt.Library>
libRbt.so (2013.1, Build901 2013/11/27)

>  <Rbt.Parameter_File>
/export/apps/rDock/src/rDock_2013.1_src/data/scripts/dock_solv.prm

>  <Rbt.Receptor>
prm/blind_docking_20.prm

>  <SCORE>
-53.0704

>  <SCORE.INTER>
-53.5915

>  <SCORE.INTER.CONST>
1

>  <SCORE.INTER.POLAR>
0

>  <SCORE.INTER.ROT>
5

>  <SCORE.INTER.SOLV>
10.1914

>  <SCORE.INTER.VDW>
-46.0582

>  <SCORE.INTER.norm>
-2.14366

>  <SCORE.INTRA>
0.521135

>  <SCORE.INTRA.DIHEDRAL>
1.80767

>  <SCORE.INTRA.DIHEDRAL.0>
2.1627

>  <SCORE.INTRA.POLAR>
0

>  <SCORE.INTRA.POLAR.0>
0

>  <SCORE.INTRA.REPUL>
0

>  <SCORE.INTRA.REPUL.0>
0

>  <SCORE.INTRA.SOLV>
0.0235409

>  <SCORE.INTRA.SOLV.lig_0>
-5.95779

>  <SCORE.INTRA.VDW>
-0.394469

>  <SCORE.INTRA.VDW.0>
3.81702

>  <SCORE.INTRA.norm>
0.0208454

>  <SCORE.RESTR>
0

>  <SCORE.RESTR.CAVITY>
0

>  <SCORE.RESTR.norm>
0

>  <SCORE.SYSTEM>
0

>  <SCORE.SYSTEM.CONST>
0

>  <SCORE.SYSTEM.DIHEDRAL>
0

>  <SCORE.SYSTEM.SOLV>
0

>  <SCORE.SYSTEM.norm>
0

>  <SCORE.heavy>
25

>  <SCORE.norm>
-2.12282

>  <RMSD>
0.731

$$$$
1q8n_lig
 OpenBabel11021811403D
libRbt.so/2013.1/901 2013/11/27
 25 27  0  0  0  0  0  0  0  0999 V2000
    0.6155    0.8455   -1.5805 C   0  0  0  0  0  0  0  0  0  0  0  0
    0.5928    2.0026   -2.7319 C   0  0  0  0  0  0  0  0  0  0  0  0
   -1.1778    2.2685    3.9132 N   0  0  0  0  0  0  0  0  0  0  0  0
    1.2109    3.2007   -2.6000 C   0  0  0  0  0  0  0  0  0  0  0  0
    2.5633   -4.6522   -2.9572 N   0  0  0  0  0  0  0  0  0  0  0  0
    1.1609    4.2263   -3.6675 C   0  0  0  0  0  0  0  0  0  0  0  0
    0.4844    3.9725   -4.8112 C   0  0  0  0  0  0  0  0  0  0  0  0
   -0.1762    2.6987   -4.9753 C   0  0  0  0  0  0  0  0  0  0  0  0
   -0.1254    1.7830   -4.0048 C   0  0  0  0  0  0  0  0  0  0  0  0
    0.1232    1.2405   -0.0766 C   0  0  0  0  0  0  0  0  0  0  0  0
   -0.5447    2.3883    0.1617 C   0  0  0  0  0  0  0  0  0  0  0  0
   -1.0017    2.7652    1.5281 C   0  0  0  0  0  0  0  0  0  0  0  0
   -0.7536    1.9441    2.5834 C   0  0  0  0  0  0  0  0  0  0  0  0
   -0.0262    0.6845    2.3379 C   0  0  0  0  0  0  0  0  0  0  0  0
    0.3797    0.3616    1.1019 C   0  0  0  0  0  0  0  0  0  0  0  0
    1.1230   -0.6990   -1.9057 C   0  0  0  0  0  0  0  0  0  0  0  0
    1.7725   -1.0099   -3.2260 C   0  0  0  0  0  0  0  0  0  0  0  0
    2.2118   -2.2300   -3.5464 C   0  0  0  0  0  0  0  0  0  0  0  0
    2.0786   -3.3499   -2.6072 C   0  0  0  0  0  0  0  0  0  0  0  0
    1.4973   -3.1263   -1.4103 C   0  0  0  0  0  0  0  0  0  0  0  0
    1.0010   -1.7586   -1.0387 C   0  0  0  0  0  0  0  0  0  0  0  0
   -1.9271    3.4516    4.2087 C   0  0  0  0  0  0  0  0  0  0  0  0
   -0.8573    1.3988    5.0023 C   0  0  0  0  0  0  0  0  0  0  0  0
    2.0321   -5.8203   -2.3155 C   0  0  0  0  0  0  0  0  0  0  0  0
    3.5877   -4.8264   -3.9620 C   0  0  0  0  0  0  0  0  0  0  0  0
  1  2  1  0  0  0  0
  1 10  1  0  0  0  0
  1 16  1  0  0  0  0
  2  4  2  0  0  0  0
  2  9  1  0  0  0  0
  4  6  1  0  0  0  0
  6  7  2  0  0  0  0
  7  8  1  0  0  0  0
  8  9  2  0  0  0  0
 10 11  2  0  0  0  0
 10 15  1  0  0  0  0
 11 12  1  0  0  0  0
 12 13  2  0  0  0  0
 13  3  1  0  0  0  0
 13 14  1  0  0  0  0
 14 15  2  0  0  0  0
 16 17  2  0  0  0  0
 16 21  1  0  0  0  0
 17 18  1  0  0  0  0
 18 19  2  0  0  0  0
 19  5  1  0  0  0  0
 19 20  1  0  0  0  0
 20 21  2  0  0  0  0
 22  3  1  0  0  0  0
 23  3  1  0  0  0  0
 24  5  1  0  0  0  0
 25  5  1  0  0  0  0
M  END
>  <CHROM.1>
54.32551236,13.74445448,9.32008354,2.15592775,-157.04364561,0.63599054,0.25974172
-1.01188661,3.07297102,-1.20603919,2.27766049

>  <Name>
1q8n_lig

>  <RI>
0

>  <Rbt.Current_Directory>
/home/itssahil/PROJECTS/Mol_Feturizer/New_Systems/rnas/1q8n

>  <Rbt.Executable>
rbdock ($Id: //depot/dev/client3/rdock/2013.1/src/exe/rbdock.cxx#4 $)

>  <Rbt.Library>
libRbt.so (2013.1, Build901 2013/11/27)

>  <Rbt.Parameter_File>
/export/apps/rDock/src/rDock_2013.1_src/data/scripts/dock_solv.prm

>  <Rbt.Receptor>
prm/blind_docking_60.prm

>  <SCORE>
-53.0671

>  <SCORE.INTER>
-53.6228

>  <SCORE.INTER.CONST>
1

>  <SCORE.INTER.POLAR>
0

>  <SCORE.INTER.ROT>
5

>  <SCORE.INTER.SOLV>
10.2101

>  <SCORE.INTER.VDW>
-46.0853

>  <SCORE.INTER.norm>
-2.14491

>  <SCORE.INTRA>
0.555711

>  <SCORE.INTRA.DIHEDRAL>
1.95999

>  <SCORE.INTRA.DIHEDRAL.0>
2.1627

>  <SCORE.INTRA.POLAR>
0

>  <SCORE.INTRA.POLAR.0>
0

>  <SCORE.INTRA.REPUL>
0

>  <SCORE.INTRA.REPUL.0>
0

>  <SCORE.INTRA.SOLV>
0.0250504

>  <SCORE.INTRA.SOLV.lig_0>
-5.95779

>  <SCORE.INTRA.VDW>
-0.436809

>  <SCORE.INTRA.VDW.0>
3.81702

>  <SCORE.INTRA.norm>
0.0222284

>  <SCORE.RESTR>
0

>  <SCORE.RESTR.CAVITY>
0

>  <SCORE.RESTR.norm>
0

>  <SCORE.SYSTEM>
0

>  <SCORE.SYSTEM.CONST>
0

>  <SCORE.SYSTEM.DIHEDRAL>
0

>  <SCORE.SYSTEM.SOLV>
0

>  <SCORE.SYSTEM.norm>
0

>  <SCORE.heavy>
25

>  <SCORE.norm>
-2.12269

>  <RMSD>
0.732

$$$$
1q8n_lig
 OpenBabel11021811413D
libRbt.so/2013.1/901 2013/11/27
 25 27  0  0  0  0  0  0  0  0999 V2000
    0.6256    0.8423   -1.5895 C   0  0  0  0  0  0  0  0  0  0  0  0
    0.6018    1.9988   -2.7416 C   0  0  0  0  0  0  0  0  0  0  0  0
   -1.1480    2.2725    3.9087 N   0  0  0  0  0  0  0  0  0  0  0  0
    1.2350    3.1899   -2.6182 C   0  0  0  0  0  0  0  0  0  0  0  0
    2.5614   -4.6597   -2.9655 N   0  0  0  0  0  0  0  0  0  0  0  0
    1.1836    4.2153   -3.6858 C   0  0  0  0  0  0  0  0  0  0  0  0
    0.4904    3.9684   -4.8210 C   0  0  0  0  0  0  0  0  0  0  0  0
   -0.1865    2.7020   -4.9760 C   0  0  0  0  0  0  0  0  0  0  0  0
   -0.1342    1.7864   -4.0053 C   0  0  0  0  0  0  0  0  0  0  0  0
    0.1390    1.2394   -0.0842 C   0  0  0  0  0  0  0  0  0  0  0  0
   -0.4590    2.4222    0.1682 C   0  0  0  0  0  0  0  0  0  0  0  0
   -0.9096    2.8015    1.5361 C   0  0  0  0  0  0  0  0  0  0  0  0
   -0.7272    1.9470    2.5781 C   0  0  0  0  0  0  0  0  0  0  0  0
   -0.0767    0.6490    2.3170 C   0  0  0  0  0  0  0  0  0  0  0  0
    0.3245    0.3243    1.0800 C   0  0  0  0  0  0  0  0  0  0  0  0
    1.1284   -0.7036   -1.9154 C   0  0  0  0  0  0  0  0  0  0  0  0
    1.8046   -1.0094   -3.2234 C   0  0  0  0  0  0  0  0  0  0  0  0
    2.2416   -2.2305   -3.5434 C   0  0  0  0  0  0  0  0  0  0  0  0
    2.0791   -3.3564   -2.6162 C   0  0  0  0  0  0  0  0  0  0  0  0
    1.4731   -3.1373   -1.4308 C   0  0  0  0  0  0  0  0  0  0  0  0
    0.9791   -1.7687   -1.0596 C   0  0  0  0  0  0  0  0  0  0  0  0
   -0.8360    1.4433    5.0329 C   0  0  0  0  0  0  0  0  0  0  0  0
   -1.9058    3.4606    4.1527 C   0  0  0  0  0  0  0  0  0  0  0  0
    3.5897   -4.8114   -3.9545 C   0  0  0  0  0  0  0  0  0  0  0  0
    2.0355   -5.8486   -2.3335 C   0  0  0  0  0  0  0  0  0  0  0  0
  1  2  1  0  0  0  0
  1 10  1  0  0  0  0
  1 16  1  0  0  0  0
  2  4  2  0  0  0  0
  2  9  1  0  0  0  0
  4  6  1  0  0  0  0
  6  7  2  0  0  0  0
  7  8  1  0  0  0  0
  8  9  2  0  0  0  0
 10 11  2  0  0  0  0
 10 15  1  0  0  0  0
 11 12  1  0  0  0  0
 12 13  2  0  0  0  0
 13  3  1  0  0  0  0
 13 14  1  0  0  0  0
 14 15  2  0  0  0  0
 16 17  2  0  0  0  0
 16 21  1  0  0  0  0
 17 18  1  0  0  0  0
 18 19  2  0  0  0  0
 19  5  1  0  0  0  0
 19 20  1  0  0  0  0
 20 21  2  0  0  0  0
 22  3  1  0  0  0  0
 23  3  1  0  0  0  0
 24  5  1  0  0  0  0
 25  5  1  0  0  0  0
M  END
>  <CHROM.1>
55.05162889,10.00045535,10.88046780,-173.30968508,22.01183121,0.64662234
0.25912839,-1.02032879,3.07910359,-1.20907793,2.28158704

>  <Name>
1q8n_lig

>  <RI>
0

>  <Rbt.Current_Directory>
/home/itssahil/PROJECTS/Mol_Feturizer/New_Systems/rnas/1q8n

>  <Rbt.Executable>
rbdock ($Id: //depot/dev/client3/rdock/2013.1/src/exe/rbdock.cxx#4 $)

>  <Rbt.Library>
libRbt.so (2013.1, Build901 2013/11/27)

>  <Rbt.Parameter_File>
/export/apps/rDock/src/rDock_2013.1_src/data/scripts/dock_solv.prm

>  <Rbt.Receptor>
prm/pocket_docking_7.prm

>  <SCORE>
-52.9926

>  <SCORE.INTER>
-53.5343

>  <SCORE.INTER.CONST>
1

>  <SCORE.INTER.POLAR>
0

>  <SCORE.INTER.ROT>
5

>  <SCORE.INTER.SOLV>
10.1867

>  <SCORE.INTER.VDW>
-46.0184

>  <SCORE.INTER.norm>
-2.14137

>  <SCORE.INTRA>
0.54167

>  <SCORE.INTRA.DIHEDRAL>
1.96673

>  <SCORE.INTRA.DIHEDRAL.0>
2.1627

>  <SCORE.INTRA.POLAR>
0

>  <SCORE.INTRA.POLAR.0>
0

>  <SCORE.INTRA.REPUL>
0

>  <SCORE.INTRA.REPUL.0>
0

>  <SCORE.INTRA.SOLV>
0.0250676

>  <SCORE.INTRA.SOLV.lig_0>
-5.95779

>  <SCORE.INTRA.VDW>
-0.454229

>  <SCORE.INTRA.VDW.0>
3.81702

>  <SCORE.INTRA.norm>
0.0216668

>  <SCORE.RESTR>
0

>  <SCORE.RESTR.CAVITY>
0

>  <SCORE.RESTR.norm>
0

>  <SCORE.SYSTEM>
0

>  <SCORE.SYSTEM.CONST>
0

>  <SCORE.SYSTEM.DIHEDRAL>
0

>  <SCORE.SYSTEM.SOLV>
0

>  <SCORE.SYSTEM.norm>
0

>  <SCORE.heavy>
25

>  <SCORE.norm>
-2.1197

>  <RMSD>
0.732

$$$$
1q8n_lig
 OpenBabel11021811413D
libRbt.so/2013.1/901 2013/11/27
 25 27  0  0  0  0  0  0  0  0999 V2000
    0.6564    0.8305   -1.6413 C   0  0  0  0  0  0  0  0  0  0  0  0
    0.5845    1.9641   -2.8141 C   0  0  0  0  0  0  0  0  0  0  0  0
    2.6191   -4.6058   -3.0613 N   0  0  0  0  0  0  0  0  0  0  0  0
    1.2742    3.1291   -2.7708 C   0  0  0  0  0  0  0  0  0  0  0  0
   -1.1440    2.1946    3.9094 N   0  0  0  0  0  0  0  0  0  0  0  0
    1.1764    4.1344   -3.8541 C   0  0  0  0  0  0  0  0  0  0  0  0
    0.3816    3.8952   -4.9224 C   0  0  0  0  0  0  0  0  0  0  0  0
   -0.3574    2.6563   -4.9917 C   0  0  0  0  0  0  0  0  0  0  0  0
   -0.2623    1.7586   -4.0077 C   0  0  0  0  0  0  0  0  0  0  0  0
    1.1947   -0.6578   -2.0356 C   0  0  0  0  0  0  0  0  0  0  0  0
    1.7969   -0.8926   -3.2199 C   0  0  0  0  0  0  0  0  0  0  0  0
    2.2945   -2.2448   -3.5967 C   0  0  0  0  0  0  0  0  0  0  0  0
    2.1524   -3.2899   -2.7383 C   0  0  0  0  0  0  0  0  0  0  0  0
    1.4979   -3.0479   -1.4386 C   0  0  0  0  0  0  0  0  0  0  0  0
    1.0542   -1.8249   -1.1163 C   0  0  0  0  0  0  0  0  0  0  0  0
    0.1983    1.1582   -0.0820 C   0  0  0  0  0  0  0  0  0  0  0  0
   -0.6086    2.3917    0.2164 C   0  0  0  0  0  0  0  0  0  0  0  0
   -1.0172    2.7081    1.4482 C   0  0  0  0  0  0  0  0  0  0  0  0
   -0.6912    1.8510    2.5940 C   0  0  0  0  0  0  0  0  0  0  0  0
    0.0363    0.7347    2.3820 C   0  0  0  0  0  0  0  0  0  0  0  0
    0.4998    0.3680    1.0016 C   0  0  0  0  0  0  0  0  0  0  0  0
    3.6283   -4.8372   -4.0494 C   0  0  0  0  0  0  0  0  0  0  0  0
    2.0771   -5.7459   -2.3892 C   0  0  0  0  0  0  0  0  0  0  0  0
   -1.8944    3.3979    4.1268 C   0  0  0  0  0  0  0  0  0  0  0  0
   -0.8659    1.3440    5.0446 C   0  0  0  0  0  0  0  0  0  0  0  0
  1  2  1  0  0  0  0
  1 10  1  0  0  0  0
  1 16  1  0  0  0  0
  2  4  2  0  0  0  0
  2  9  1  0  0  0  0
  4  6  1  0  0  0  0
  6  7  2  0  0  0  0
  7  8  1  0  0  0  0
  8  9  2  0  0  0  0
 10 11  2  0  0  0  0
 10 15  1  0  0  0  0
 11 12  1  0  0  0  0
 12 13  2  0  0  0  0
 13  3  1  0  0  0  0
 13 14  1  0  0  0  0
 14 15  2  0  0  0  0
 16 17  2  0  0  0  0
 16 21  1  0  0  0  0
 17 18  1  0  0  0  0
 18 19  2  0  0  0  0
 19  5  1  0  0  0  0
 19 20  1  0  0  0  0
 20 21  2  0  0  0  0
 22  3  1  0  0  0  0
 23  3  1  0  0  0  0
 24  5  1  0  0  0  0
 25  5  1  0  0  0  0
M  END
>  <CHROM.1>
-119.60185316,12.15210465,15.20404634,21.45934777,-1.49987733,0.65329404
0.24435704,-1.06861380,0.14482440,1.19949931,-0.91698892

>  <Name>
1q8n_lig

>  <RI>
0

>  <Rbt.Current_Directory>
/home/itssahil/PROJECTS/Mol_Feturizer/New_Systems/rnas/1q8n

>  <Rbt.Executable>
rbdock ($Id: //depot/dev/client3/rdock/2013.1/src/exe/rbdock.cxx#4 $)

>  <Rbt.Library>
libRbt.so (2013.1, Build901 2013/11/27)

>  <Rbt.Parameter_File>
/export/apps/rDock/src/rDock_2013.1_src/data/scripts/dock_solv.prm

>  <Rbt.Receptor>
prm/pocket_docking_7.prm

>  <SCORE>
-54.0589

>  <SCORE.INTER>
-54.5009

>  <SCORE.INTER.CONST>
1

>  <SCORE.INTER.POLAR>
0

>  <SCORE.INTER.ROT>
5

>  <SCORE.INTER.SOLV>
10.0476

>  <SCORE.INTER.VDW>
-46.6164

>  <SCORE.INTER.norm>
-2.18004

>  <SCORE.INTRA>
0.44202

>  <SCORE.INTRA.DIHEDRAL>
1.71845

>  <SCORE.INTRA.DIHEDRAL.0>
2.1627

>  <SCORE.INTRA.POLAR>
0

>  <SCORE.INTRA.POLAR.0>
0

>  <SCORE.INTRA.REPUL>
0

>  <SCORE.INTRA.REPUL.0>
0

>  <SCORE.INTRA.SOLV>
0.0145612

>  <SCORE.INTRA.SOLV.lig_0>
-5.95779

>  <SCORE.INTRA.VDW>
-0.424486

>  <SCORE.INTRA.VDW.0>
3.81702

>  <SCORE.INTRA.norm>
0.0176808

>  <SCORE.RESTR>
0

>  <SCORE.RESTR.CAVITY>
0

>  <SCORE.RESTR.norm>
0

>  <SCORE.SYSTEM>
0

>  <SCORE.SYSTEM.CONST>
0

>  <SCORE.SYSTEM.DIHEDRAL>
0

>  <SCORE.SYSTEM.SOLV>
0

>  <SCORE.SYSTEM.norm>
0

>  <SCORE.heavy>
25

>  <SCORE.norm>
-2.16235

>  <RMSD>
0.733

$$$$
1q8n_lig
 OpenBabel11021811403D
libRbt.so/2013.1/901 2013/11/27
 25 27  0  0  0  0  0  0  0  0999 V2000
    0.6068    0.8485   -1.5807 C   0  0  0  0  0  0  0  0  0  0  0  0
    0.5855    2.0081   -2.7297 C   0  0  0  0  0  0  0  0  0  0  0  0
   -1.1680    2.2669    3.9203 N   0  0  0  0  0  0  0  0  0  0  0  0
    1.1825    3.2153   -2.5846 C   0  0  0  0  0  0  0  0  0  0  0  0
    2.5338   -4.6528   -2.9716 N   0  0  0  0  0  0  0  0  0  0  0  0
    1.1345    4.2427   -3.6505 C   0  0  0  0  0  0  0  0  0  0  0  0
    0.4815    3.9813   -4.8060 C   0  0  0  0  0  0  0  0  0  0  0  0
   -0.1562    2.6978   -4.9842 C   0  0  0  0  0  0  0  0  0  0  0  0
   -0.1075    1.7805   -4.0150 C   0  0  0  0  0  0  0  0  0  0  0  0
    0.1195    1.2423   -0.0748 C   0  0  0  0  0  0  0  0  0  0  0  0
   -0.5572    2.3846    0.1650 C   0  0  0  0  0  0  0  0  0  0  0  0
   -1.0098    2.7602    1.5332 C   0  0  0  0  0  0  0  0  0  0  0  0
   -0.7484    1.9436    2.5887 C   0  0  0  0  0  0  0  0  0  0  0  0
   -0.0112    0.6900    2.3416 C   0  0  0  0  0  0  0  0  0  0  0  0
    0.3905    0.3681    1.1040 C   0  0  0  0  0  0  0  0  0  0  0  0
    1.1080   -0.6971   -1.9102 C   0  0  0  0  0  0  0  0  0  0  0  0
    1.7668   -1.0045   -3.2267 C   0  0  0  0  0  0  0  0  0  0  0  0
    2.2017   -2.2254   -3.5501 C   0  0  0  0  0  0  0  0  0  0  0  0
    2.0539   -3.3496   -2.6184 C   0  0  0  0  0  0  0  0  0  0  0  0
    1.4636   -3.1292   -1.4253 C   0  0  0  0  0  0  0  0  0  0  0  0
    0.9723   -1.7607   -1.0502 C   0  0  0  0  0  0  0  0  0  0  0  0
   -0.8763    1.4233    5.0391 C   0  0  0  0  0  0  0  0  0  0  0  0
   -1.9039    3.4673    4.1705 C   0  0  0  0  0  0  0  0  0  0  0  0
    3.5695   -4.8028   -3.9530 C   0  0  0  0  0  0  0  0  0  0  0  0
    1.9980   -5.8433   -2.3510 C   0  0  0  0  0  0  0  0  0  0  0  0
  1  2  1  0  0  0  0
  1 10  1  0  0  0  0
  1 16  1  0  0  0  0
  2  4  2  0  0  0  0
  2  9  1  0  0  0  0
  4  6  1  0  0  0  0
  6  7  2  0  0  0  0
  7  8  1  0  0  0  0
  8  9  2  0  0  0  0
 10 11  2  0  0  0  0
 10 15  1  0  0  0  0
 11 12  1  0  0  0  0
 12 13  2  0  0  0  0
 13  3  1  0  0  0  0
 13 14  1  0  0  0  0
 14 15  2  0  0  0  0
 16 17  2  0  0  0  0
 16 21  1  0  0  0  0
 17 18  1  0  0  0  0
 18 19  2  0  0  0  0
 19  5  1  0  0  0  0
 19 20  1  0  0  0  0
 20 21  2  0  0  0  0
 22  3  1  0  0  0  0
 23  3  1  0  0  0  0
 24  5  1  0  0  0  0
 25  5  1  0  0  0  0
M  END
>  <CHROM.1>
52.76426565,14.51985517,9.99420643,-178.90329214,23.38199416,0.62731537,0.26371137
-1.01364278,3.07621737,-1.20974516,2.28160041

>  <Name>
1q8n_lig

>  <RI>
0

>  <Rbt.Current_Directory>
/home/itssahil/PROJECTS/Mol_Feturizer/New_Systems/rnas/1q8n

>  <Rbt.Executable>
rbdock ($Id: //depot/dev/client3/rdock/2013.1/src/exe/rbdock.cxx#4 $)

>  <Rbt.Library>
libRbt.so (2013.1, Build901 2013/11/27)

>  <Rbt.Parameter_File>
/export/apps/rDock/src/rDock_2013.1_src/data/scripts/dock_solv.prm

>  <Rbt.Receptor>
prm/pocket_docking_3.prm

>  <SCORE>
-52.9932

>  <SCORE.INTER>
-53.5111

>  <SCORE.INTER.CONST>
1

>  <SCORE.INTER.POLAR>
0

>  <SCORE.INTER.ROT>
5

>  <SCORE.INTER.SOLV>
10.2133

>  <SCORE.INTER.VDW>
-46.0118

>  <SCORE.INTER.norm>
-2.14044

>  <SCORE.INTRA>
0.517883

>  <SCORE.INTRA.DIHEDRAL>
2.01522

>  <SCORE.INTRA.DIHEDRAL.0>
2.1627

>  <SCORE.INTRA.POLAR>
0

>  <SCORE.INTRA.POLAR.0>
0

>  <SCORE.INTRA.REPUL>
0

>  <SCORE.INTRA.REPUL.0>
0

>  <SCORE.INTRA.SOLV>
0.0263828

>  <SCORE.INTRA.SOLV.lig_0>
-5.95779

>  <SCORE.INTRA.VDW>
-0.502917

>  <SCORE.INTRA.VDW.0>
3.81702

>  <SCORE.INTRA.norm>
0.0207153

>  <SCORE.RESTR>
0

>  <SCORE.RESTR.CAVITY>
0

>  <SCORE.RESTR.norm>
0

>  <SCORE.SYSTEM>
0

>  <SCORE.SYSTEM.CONST>
0

>  <SCORE.SYSTEM.DIHEDRAL>
0

>  <SCORE.SYSTEM.SOLV>
0

>  <SCORE.SYSTEM.norm>
0

>  <SCORE.heavy>
25

>  <SCORE.norm>
-2.11973

>  <RMSD>
0.734

$$$$
1q8n_lig
 OpenBabel11021811413D
libRbt.so/2013.1/901 2013/11/27
 25 27  0  0  0  0  0  0  0  0999 V2000
    0.6368    0.8592   -1.6015 C   0  0  0  0  0  0  0  0  0  0  0  0
    0.6114    2.0338   -2.7352 C   0  0  0  0  0  0  0  0  0  0  0  0
   -1.1554    2.2345    3.9047 N   0  0  0  0  0  0  0  0  0  0  0  0
    1.2212    3.2336   -2.5822 C   0  0  0  0  0  0  0  0  0  0  0  0
    2.5944   -4.6138   -3.0597 N   0  0  0  0  0  0  0  0  0  0  0  0
    1.1691    4.2751   -3.6341 C   0  0  0  0  0  0  0  0  0  0  0  0
    0.4992    4.0346   -4.7845 C   0  0  0  0  0  0  0  0  0  0  0  0
   -0.1524    2.7593   -4.9710 C   0  0  0  0  0  0  0  0  0  0  0  0
   -0.0998    1.8291   -4.0144 C   0  0  0  0  0  0  0  0  0  0  0  0
    0.1462    1.2309   -0.0911 C   0  0  0  0  0  0  0  0  0  0  0  0
    0.3278    0.3730    0.9342 C   0  0  0  0  0  0  0  0  0  0  0  0
   -0.1137    0.6956    2.3195 C   0  0  0  0  0  0  0  0  0  0  0  0
   -0.7177    1.8845    2.5858 C   0  0  0  0  0  0  0  0  0  0  0  0
   -0.9211    2.8338    1.4751 C   0  0  0  0  0  0  0  0  0  0  0  0
   -0.5192    2.5266    0.2338 C   0  0  0  0  0  0  0  0  0  0  0  0
    1.1452   -0.6797   -1.9509 C   0  0  0  0  0  0  0  0  0  0  0  0
    1.8329   -0.9608   -3.2584 C   0  0  0  0  0  0  0  0  0  0  0  0
    2.2749   -2.1752   -3.5966 C   0  0  0  0  0  0  0  0  0  0  0  0
    2.1067   -3.3178   -2.6912 C   0  0  0  0  0  0  0  0  0  0  0  0
    1.4902   -3.1212   -1.5072 C   0  0  0  0  0  0  0  0  0  0  0  0
    0.9906   -1.7603   -1.1156 C   0  0  0  0  0  0  0  0  0  0  0  0
   -1.8902    3.4331    4.1727 C   0  0  0  0  0  0  0  0  0  0  0  0
   -0.8637    1.3758    5.0105 C   0  0  0  0  0  0  0  0  0  0  0  0
    3.6336   -4.7458   -4.0400 C   0  0  0  0  0  0  0  0  0  0  0  0
    2.0630   -5.8150   -2.4561 C   0  0  0  0  0  0  0  0  0  0  0  0
  1  2  1  0  0  0  0
  1 10  1  0  0  0  0
  1 16  1  0  0  0  0
  2  4  2  0  0  0  0
  2  9  1  0  0  0  0
  4  6  1  0  0  0  0
  6  7  2  0  0  0  0
  7  8  1  0  0  0  0
  8  9  2  0  0  0  0
 10 11  2  0  0  0  0
 10 15  1  0  0  0  0
 11 12  1  0  0  0  0
 12 13  2  0  0  0  0
 13  3  1  0  0  0  0
 13 14  1  0  0  0  0
 14 15  2  0  0  0  0
 16 17  2  0  0  0  0
 16 21  1  0  0  0  0
 17 18  1  0  0  0  0
 18 19  2  0  0  0  0
 19  5  1  0  0  0  0
 19 20  1  0  0  0  0
 20 21  2  0  0  0  0
 22  3  1  0  0  0  0
 23  3  1  0  0  0  0
 24  5  1  0  0  0  0
 25  5  1  0  0  0  0
M  END
>  <CHROM.1>
53.87071571,-169.99509858,11.28599329,-174.67006116,22.16909052,0.65473782
0.28610701,-1.04772269,3.08678885,-1.20552977,2.29717684

>  <Name>
1q8n_lig

>  <RI>
0

>  <Rbt.Current_Directory>
/home/itssahil/PROJECTS/Mol_Feturizer/New_Systems/rnas/1q8n

>  <Rbt.Executable>
rbdock ($Id: //depot/dev/client3/rdock/2013.1/src/exe/rbdock.cxx#4 $)

>  <Rbt.Library>
libRbt.so (2013.1, Build901 2013/11/27)

>  <Rbt.Parameter_File>
/export/apps/rDock/src/rDock_2013.1_src/data/scripts/dock_solv.prm

>  <Rbt.Receptor>
prm/pocket_docking_6.prm

>  <SCORE>
-52.8884

>  <SCORE.INTER>
-53.4873

>  <SCORE.INTER.CONST>
1

>  <SCORE.INTER.POLAR>
0

>  <SCORE.INTER.ROT>
5

>  <SCORE.INTER.SOLV>
10.1959

>  <SCORE.INTER.VDW>
-45.9902

>  <SCORE.INTER.norm>
-2.13949

>  <SCORE.INTRA>
0.598989

>  <SCORE.INTRA.DIHEDRAL>
1.92879

>  <SCORE.INTRA.DIHEDRAL.0>
2.1627

>  <SCORE.INTRA.POLAR>
0

>  <SCORE.INTRA.POLAR.0>
0

>  <SCORE.INTRA.REPUL>
0

>  <SCORE.INTRA.REPUL.0>
0

>  <SCORE.INTRA.SOLV>
0.0259529

>  <SCORE.INTRA.SOLV.lig_0>
-5.95779

>  <SCORE.INTRA.VDW>
-0.37838

>  <SCORE.INTRA.VDW.0>
3.81702

>  <SCORE.INTRA.norm>
0.0239596

>  <SCORE.RESTR>
0

>  <SCORE.RESTR.CAVITY>
0

>  <SCORE.RESTR.norm>
0

>  <SCORE.SYSTEM>
0

>  <SCORE.SYSTEM.CONST>
0

>  <SCORE.SYSTEM.DIHEDRAL>
0

>  <SCORE.SYSTEM.SOLV>
0

>  <SCORE.SYSTEM.norm>
0

>  <SCORE.heavy>
25

>  <SCORE.norm>
-2.11553

>  <RMSD>
0.734

$$$$
1q8n_lig
 OpenBabel11021811403D
libRbt.so/2013.1/901 2013/11/27
 25 27  0  0  0  0  0  0  0  0999 V2000
    0.6443    0.8734   -1.5570 C   0  0  0  0  0  0  0  0  0  0  0  0
    0.5962    2.0073   -2.7306 C   0  0  0  0  0  0  0  0  0  0  0  0
    2.5573   -4.5755   -2.9961 N   0  0  0  0  0  0  0  0  0  0  0  0
    1.2309    3.2008   -2.6433 C   0  0  0  0  0  0  0  0  0  0  0  0
   -1.1869    2.2617    3.9777 N   0  0  0  0  0  0  0  0  0  0  0  0
    1.1570    4.2051   -3.7295 C   0  0  0  0  0  0  0  0  0  0  0  0
    0.4409    3.9360   -4.8452 C   0  0  0  0  0  0  0  0  0  0  0  0
   -0.2382    2.6667   -4.9616 C   0  0  0  0  0  0  0  0  0  0  0  0
   -0.1654    1.7701   -3.9747 C   0  0  0  0  0  0  0  0  0  0  0  0
    1.1680   -0.6214   -1.9462 C   0  0  0  0  0  0  0  0  0  0  0  0
    1.0145   -1.6592   -1.0978 C   0  0  0  0  0  0  0  0  0  0  0  0
    1.4865   -3.0305   -1.4365 C   0  0  0  0  0  0  0  0  0  0  0  0
    2.0907   -3.2707   -2.6308 C   0  0  0  0  0  0  0  0  0  0  0  0
    2.2636   -2.1462   -3.5697 C   0  0  0  0  0  0  0  0  0  0  0  0
    1.8345   -0.9178   -3.2482 C   0  0  0  0  0  0  0  0  0  0  0  0
    0.1767    1.2072   -0.0017 C   0  0  0  0  0  0  0  0  0  0  0  0
   -0.6137    2.4529    0.2900 C   0  0  0  0  0  0  0  0  0  0  0  0
   -1.0289    2.7748    1.5182 C   0  0  0  0  0  0  0  0  0  0  0  0
   -0.7271    1.9120    2.6663 C   0  0  0  0  0  0  0  0  0  0  0  0
   -0.0151    0.7846    2.4603 C   0  0  0  0  0  0  0  0  0  0  0  0
    0.4556    0.4117    1.0840 C   0  0  0  0  0  0  0  0  0  0  0  0
    2.0470   -5.7669   -2.3889 C   0  0  0  0  0  0  0  0  0  0  0  0
    3.5657   -4.7237   -3.9992 C   0  0  0  0  0  0  0  0  0  0  0  0
   -0.9031    1.4099    5.0968 C   0  0  0  0  0  0  0  0  0  0  0  0
   -1.9379    3.4746    4.2107 C   0  0  0  0  0  0  0  0  0  0  0  0
  1  2  1  0  0  0  0
  1 10  1  0  0  0  0
  1 16  1  0  0  0  0
  2  4  2  0  0  0  0
  2  9  1  0  0  0  0
  4  6  1  0  0  0  0
  6  7  2  0  0  0  0
  7  8  1  0  0  0  0
  8  9  2  0  0  0  0
 10 11  2  0  0  0  0
 10 15  1  0  0  0  0
 11 12  1  0  0  0  0
 12 13  2  0  0  0  0
 13  3  1  0  0  0  0
 13 14  1  0  0  0  0
 14 15  2  0  0  0  0
 16 17  2  0  0  0  0
 16 21  1  0  0  0  0
 17 18  1  0  0  0  0
 18 19  2  0  0  0  0
 19  5  1  0  0  0  0
 19 20  1  0  0  0  0
 20 21  2  0  0  0  0
 22  3  1  0  0  0  0
 23  3  1  0  0  0  0
 24  5  1  0  0  0  0
 25  5  1  0  0  0  0
M  END
>  <CHROM.1>
-124.00293103,-168.22928117,14.98699750,21.72449339,179.34057136,0.63782255
0.29536034,-1.00720062,0.11675303,1.20376088,-0.88166151

>  <Name>
1q8n_lig

>  <RI>
0

>  <Rbt.Current_Directory>
/home/itssahil/PROJECTS/Mol_Feturizer/New_Systems/rnas/1q8n

>  <Rbt.Executable>
rbdock ($Id: //depot/dev/client3/rdock/2013.1/src/exe/rbdock.cxx#4 $)

>  <Rbt.Library>
libRbt.so (2013.1, Build901 2013/11/27)

>  <Rbt.Parameter_File>
/export/apps/rDock/src/rDock_2013.1_src/data/scripts/dock_solv.prm

>  <Rbt.Receptor>
prm/blind_docking_60.prm

>  <SCORE>
-53.5739

>  <SCORE.INTER>
-54.1644

>  <SCORE.INTER.CONST>
1

>  <SCORE.INTER.POLAR>
0

>  <SCORE.INTER.ROT>
5

>  <SCORE.INTER.SOLV>
10.1772

>  <SCORE.INTER.VDW>
-46.4354

>  <SCORE.INTER.norm>
-2.16658

>  <SCORE.INTRA>
0.590578

>  <SCORE.INTRA.DIHEDRAL>
1.75299

>  <SCORE.INTRA.DIHEDRAL.0>
2.1627

>  <SCORE.INTRA.POLAR>
0

>  <SCORE.INTRA.POLAR.0>
0

>  <SCORE.INTRA.REPUL>
0

>  <SCORE.INTRA.REPUL.0>
0

>  <SCORE.INTRA.SOLV>
0.0204964

>  <SCORE.INTRA.SOLV.lig_0>
-5.95779

>  <SCORE.INTRA.VDW>
-0.296165

>  <SCORE.INTRA.VDW.0>
3.81702

>  <SCORE.INTRA.norm>
0.0236231

>  <SCORE.RESTR>
0

>  <SCORE.RESTR.CAVITY>
0

>  <SCORE.RESTR.norm>
0

>  <SCORE.SYSTEM>
0

>  <SCORE.SYSTEM.CONST>
0

>  <SCORE.SYSTEM.DIHEDRAL>
0

>  <SCORE.SYSTEM.SOLV>
0

>  <SCORE.SYSTEM.norm>
0

>  <SCORE.heavy>
25

>  <SCORE.norm>
-2.14295

>  <RMSD>
0.735

$$$$
1q8n_lig
 OpenBabel11021811403D
libRbt.so/2013.1/901 2013/11/27
 25 27  0  0  0  0  0  0  0  0999 V2000
    0.6689    0.8264   -1.6386 C   0  0  0  0  0  0  0  0  0  0  0  0
    0.6022    1.9606   -2.8111 C   0  0  0  0  0  0  0  0  0  0  0  0
    2.6127   -4.6167   -3.0586 N   0  0  0  0  0  0  0  0  0  0  0  0
    1.2776    3.1334   -2.7558 C   0  0  0  0  0  0  0  0  0  0  0  0
   -1.1319    2.1947    3.9110 N   0  0  0  0  0  0  0  0  0  0  0  0
    1.1850    4.1390   -3.8394 C   0  0  0  0  0  0  0  0  0  0  0  0
    0.4098    3.8920   -4.9201 C   0  0  0  0  0  0  0  0  0  0  0  0
   -0.3136    2.6446   -5.0023 C   0  0  0  0  0  0  0  0  0  0  0  0
   -0.2234    1.7468   -4.0180 C   0  0  0  0  0  0  0  0  0  0  0  0
    1.2021   -0.6637   -2.0329 C   0  0  0  0  0  0  0  0  0  0  0  0
    1.8179   -0.8973   -3.2105 C   0  0  0  0  0  0  0  0  0  0  0  0
    2.3110   -2.2511   -3.5871 C   0  0  0  0  0  0  0  0  0  0  0  0
    2.1509   -3.2991   -2.7354 C   0  0  0  0  0  0  0  0  0  0  0  0
    1.4815   -3.0586   -1.4432 C   0  0  0  0  0  0  0  0  0  0  0  0
    1.0420   -1.8341   -1.1208 C   0  0  0  0  0  0  0  0  0  0  0  0
    0.2108    1.1553   -0.0796 C   0  0  0  0  0  0  0  0  0  0  0  0
   -0.5966    2.3887    0.2178 C   0  0  0  0  0  0  0  0  0  0  0  0
   -1.0053    2.7060    1.4493 C   0  0  0  0  0  0  0  0  0  0  0  0
   -0.6790    1.8501    2.5959 C   0  0  0  0  0  0  0  0  0  0  0  0
    0.0490    0.7339    2.3848 C   0  0  0  0  0  0  0  0  0  0  0  0
    0.5126    0.3662    1.0047 C   0  0  0  0  0  0  0  0  0  0  0  0
    3.6191   -4.8519   -4.0487 C   0  0  0  0  0  0  0  0  0  0  0  0
    2.0686   -5.7546   -2.3846 C   0  0  0  0  0  0  0  0  0  0  0  0
   -0.8349    1.3429    5.0266 C   0  0  0  0  0  0  0  0  0  0  0  0
   -1.8891    3.4023    4.1513 C   0  0  0  0  0  0  0  0  0  0  0  0
  1  2  1  0  0  0  0
  1 10  1  0  0  0  0
  1 16  1  0  0  0  0
  2  4  2  0  0  0  0
  2  9  1  0  0  0  0
  4  6  1  0  0  0  0
  6  7  2  0  0  0  0
  7  8  1  0  0  0  0
  8  9  2  0  0  0  0
 10 11  2  0  0  0  0
 10 15  1  0  0  0  0
 11 12  1  0  0  0  0
 12 13  2  0  0  0  0
 13  3  1  0  0  0  0
 13 14  1  0  0  0  0
 14 15  2  0  0  0  0
 16 17  2  0  0  0  0
 16 21  1  0  0  0  0
 17 18  1  0  0  0  0
 18 19  2  0  0  0  0
 19  5  1  0  0  0  0
 19 20  1  0  0  0  0
 20 21  2  0  0  0  0
 22  3  1  0  0  0  0
 23  3  1  0  0  0  0
 24  5  1  0  0  0  0
 25  5  1  0  0  0  0
M  END
>  <CHROM.1>
-120.81825450,12.90265575,15.45127819,20.52873724,178.74731365,0.66377206
0.23978808,-1.06617023,0.13663670,1.20209750,-0.90891978

>  <Name>
1q8n_lig

>  <RI>
0

>  <Rbt.Current_Directory>
/home/itssahil/PROJECTS/Mol_Feturizer/New_Systems/rnas/1q8n

>  <Rbt.Executable>
rbdock ($Id: //depot/dev/client3/rdock/2013.1/src/exe/rbdock.cxx#4 $)

>  <Rbt.Library>
libRbt.so (2013.1, Build901 2013/11/27)

>  <Rbt.Parameter_File>
/export/apps/rDock/src/rDock_2013.1_src/data/scripts/dock_solv.prm

>  <Rbt.Receptor>
prm/pocket_docking_3.prm

>  <SCORE>
-54.0763

>  <SCORE.INTER>
-54.5462

>  <SCORE.INTER.CONST>
1

>  <SCORE.INTER.POLAR>
0

>  <SCORE.INTER.ROT>
5

>  <SCORE.INTER.SOLV>
10.0432

>  <SCORE.INTER.VDW>
-46.6452

>  <SCORE.INTER.norm>
-2.18185

>  <SCORE.INTRA>
0.469898

>  <SCORE.INTRA.DIHEDRAL>
1.57665

>  <SCORE.INTRA.DIHEDRAL.0>
2.1627

>  <SCORE.INTRA.POLAR>
0

>  <SCORE.INTRA.POLAR.0>
0

>  <SCORE.INTRA.REPUL>
0

>  <SCORE.INTRA.REPUL.0>
0

>  <SCORE.INTRA.SOLV>
0.0154637

>  <SCORE.INTRA.SOLV.lig_0>
-5.95779

>  <SCORE.INTRA.VDW>
-0.326157

>  <SCORE.INTRA.VDW.0>
3.81702

>  <SCORE.INTRA.norm>
0.0187959

>  <SCORE.RESTR>
0

>  <SCORE.RESTR.CAVITY>
0

>  <SCORE.RESTR.norm>
0

>  <SCORE.SYSTEM>
0

>  <SCORE.SYSTEM.CONST>
0

>  <SCORE.SYSTEM.DIHEDRAL>
0

>  <SCORE.SYSTEM.SOLV>
0

>  <SCORE.SYSTEM.norm>
0

>  <SCORE.heavy>
25

>  <SCORE.norm>
-2.16305

>  <RMSD>
0.735

$$$$
1q8n_lig
 OpenBabel11021811403D
libRbt.so/2013.1/901 2013/11/27
 25 27  0  0  0  0  0  0  0  0999 V2000
    0.5632    0.8478   -1.5689 C   0  0  0  0  0  0  0  0  0  0  0  0
    0.5191    1.9963   -2.7284 C   0  0  0  0  0  0  0  0  0  0  0  0
   -1.1987    2.2926    3.9293 N   0  0  0  0  0  0  0  0  0  0  0  0
   -0.0466    1.8090   -3.9449 C   0  0  0  0  0  0  0  0  0  0  0  0
    2.5526   -4.6401   -2.9244 N   0  0  0  0  0  0  0  0  0  0  0  0
   -0.0602    2.8764   -4.9718 C   0  0  0  0  0  0  0  0  0  0  0  0
    0.5026    4.0762   -4.7005 C   0  0  0  0  0  0  0  0  0  0  0  0
    1.1053    4.2994   -3.4072 C   0  0  0  0  0  0  0  0  0  0  0  0
    1.1129    3.3285   -2.4904 C   0  0  0  0  0  0  0  0  0  0  0  0
    0.0791    1.2487   -0.0639 C   0  0  0  0  0  0  0  0  0  0  0  0
   -0.6665    2.3506    0.1607 C   0  0  0  0  0  0  0  0  0  0  0  0
   -1.1173    2.7320    1.5279 C   0  0  0  0  0  0  0  0  0  0  0  0
   -0.7835    1.9622    2.5981 C   0  0  0  0  0  0  0  0  0  0  0  0
    0.0295    0.7531    2.3678 C   0  0  0  0  0  0  0  0  0  0  0  0
    0.4284    0.4254    1.1308 C   0  0  0  0  0  0  0  0  0  0  0  0
    1.0840   -0.6936   -1.8872 C   0  0  0  0  0  0  0  0  0  0  0  0
    1.7040   -1.0129   -3.2196 C   0  0  0  0  0  0  0  0  0  0  0  0
    2.1522   -2.2310   -3.5354 C   0  0  0  0  0  0  0  0  0  0  0  0
    2.0587   -3.3401   -2.5789 C   0  0  0  0  0  0  0  0  0  0  0  0
    1.5048   -3.1088   -1.3705 C   0  0  0  0  0  0  0  0  0  0  0  0
    0.9990   -1.7433   -1.0038 C   0  0  0  0  0  0  0  0  0  0  0  0
   -0.8964    1.4590    5.0528 C   0  0  0  0  0  0  0  0  0  0  0  0
   -1.9409    3.4903    4.1744 C   0  0  0  0  0  0  0  0  0  0  0  0
    3.6012   -4.7836   -3.8930 C   0  0  0  0  0  0  0  0  0  0  0  0
    2.0181   -5.8338   -2.3088 C   0  0  0  0  0  0  0  0  0  0  0  0
  1  2  1  0  0  0  0
  1 10  1  0  0  0  0
  1 16  1  0  0  0  0
  2  4  2  0  0  0  0
  2  9  1  0  0  0  0
  4  6  1  0  0  0  0
  6  7  2  0  0  0  0
  7  8  1  0  0  0  0
  8  9  2  0  0  0  0
 10 11  2  0  0  0  0
 10 15  1  0  0  0  0
 11 12  1  0  0  0  0
 12 13  2  0  0  0  0
 13  3  1  0  0  0  0
 13 14  1  0  0  0  0
 14 15  2  0  0  0  0
 16 17  2  0  0  0  0
 16 21  1  0  0  0  0
 17 18  1  0  0  0  0
 18 19  2  0  0  0  0
 19  5  1  0  0  0  0
 19 20  1  0  0  0  0
 20 21  2  0  0  0  0
 22  3  1  0  0  0  0
 23  3  1  0  0  0  0
 24  5  1  0  0  0  0
 25  5  1  0  0  0  0
M  END
>  <CHROM.1>
-130.51142026,17.70942184,8.25366690,177.44978511,26.29790897,0.61492347
0.29205623,-0.97503095,3.10226133,-1.20518313,2.29100862

>  <Name>
1q8n_lig

>  <RI>
0

>  <Rbt.Current_Directory>
/home/itssahil/PROJECTS/Mol_Feturizer/New_Systems/rnas/1q8n

>  <Rbt.Executable>
rbdock ($Id: //depot/dev/client3/rdock/2013.1/src/exe/rbdock.cxx#4 $)

>  <Rbt.Library>
libRbt.so (2013.1, Build901 2013/11/27)

>  <Rbt.Parameter_File>
/export/apps/rDock/src/rDock_2013.1_src/data/scripts/dock_solv.prm

>  <Rbt.Receptor>
prm/blind_docking_100.prm

>  <SCORE>
-52.0226

>  <SCORE.INTER>
-52.6378

>  <SCORE.INTER.CONST>
1

>  <SCORE.INTER.POLAR>
0

>  <SCORE.INTER.ROT>
5

>  <SCORE.INTER.SOLV>
10.3822

>  <SCORE.INTER.VDW>
-45.4859

>  <SCORE.INTER.norm>
-2.10551

>  <SCORE.INTRA>
0.615201

>  <SCORE.INTRA.DIHEDRAL>
2.53215

>  <SCORE.INTRA.DIHEDRAL.0>
2.1627

>  <SCORE.INTRA.POLAR>
0

>  <SCORE.INTRA.POLAR.0>
0

>  <SCORE.INTRA.REPUL>
0

>  <SCORE.INTRA.REPUL.0>
0

>  <SCORE.INTRA.SOLV>
0.0298651

>  <SCORE.INTRA.SOLV.lig_0>
-5.95779

>  <SCORE.INTRA.VDW>
-0.665805

>  <SCORE.INTRA.VDW.0>
3.81702

>  <SCORE.INTRA.norm>
0.0246081

>  <SCORE.RESTR>
0

>  <SCORE.RESTR.CAVITY>
0

>  <SCORE.RESTR.norm>
0

>  <SCORE.SYSTEM>
0

>  <SCORE.SYSTEM.CONST>
0

>  <SCORE.SYSTEM.DIHEDRAL>
0

>  <SCORE.SYSTEM.SOLV>
0

>  <SCORE.SYSTEM.norm>
0

>  <SCORE.heavy>
25

>  <SCORE.norm>
-2.0809

>  <RMSD>
0.736

$$$$
1q8n_lig
 OpenBabel11021811403D
libRbt.so/2013.1/901 2013/11/27
 25 27  0  0  0  0  0  0  0  0999 V2000
    0.6254    0.8425   -1.5825 C   0  0  0  0  0  0  0  0  0  0  0  0
    0.6020    1.9991   -2.7345 C   0  0  0  0  0  0  0  0  0  0  0  0
   -1.1515    2.2720    3.9149 N   0  0  0  0  0  0  0  0  0  0  0  0
    1.1764    3.2165   -2.5832 C   0  0  0  0  0  0  0  0  0  0  0  0
    2.5562   -4.6602   -2.9628 N   0  0  0  0  0  0  0  0  0  0  0  0
    1.1274    4.2407   -3.6521 C   0  0  0  0  0  0  0  0  0  0  0  0
    0.4967    3.9659   -4.8169 C   0  0  0  0  0  0  0  0  0  0  0  0
   -0.1166    2.6714   -5.0016 C   0  0  0  0  0  0  0  0  0  0  0  0
   -0.0673    1.7571   -4.0297 C   0  0  0  0  0  0  0  0  0  0  0  0
    0.1375    1.2393   -0.0776 C   0  0  0  0  0  0  0  0  0  0  0  0
   -0.5424    2.3804    0.1591 C   0  0  0  0  0  0  0  0  0  0  0  0
   -0.9955    2.7587    1.5264 C   0  0  0  0  0  0  0  0  0  0  0  0
   -0.7314    1.9459    2.5841 C   0  0  0  0  0  0  0  0  0  0  0  0
    0.0092    0.6937    2.3405 C   0  0  0  0  0  0  0  0  0  0  0  0
    0.4113    0.3693    1.1037 C   0  0  0  0  0  0  0  0  0  0  0  0
    1.1290   -0.7031   -1.9082 C   0  0  0  0  0  0  0  0  0  0  0  0
    1.7593   -1.0196   -3.2364 C   0  0  0  0  0  0  0  0  0  0  0  0
    2.1947   -2.2409   -3.5576 C   0  0  0  0  0  0  0  0  0  0  0  0
    2.0759   -3.3566   -2.6116 C   0  0  0  0  0  0  0  0  0  0  0  0
    1.5119   -3.1279   -1.4074 C   0  0  0  0  0  0  0  0  0  0  0  0
    1.0203   -1.7589   -1.0347 C   0  0  0  0  0  0  0  0  0  0  0  0
   -0.8348    1.4458    5.0398 C   0  0  0  0  0  0  0  0  0  0  0  0
   -1.9134    3.4576    4.1581 C   0  0  0  0  0  0  0  0  0  0  0  0
    3.6034   -4.8105   -3.9318 C   0  0  0  0  0  0  0  0  0  0  0  0
    2.0092   -5.8509   -2.3524 C   0  0  0  0  0  0  0  0  0  0  0  0
  1  2  1  0  0  0  0
  1 10  1  0  0  0  0
  1 16  1  0  0  0  0
  2  4  2  0  0  0  0
  2  9  1  0  0  0  0
  4  6  1  0  0  0  0
  6  7  2  0  0  0  0
  7  8  1  0  0  0  0
  8  9  2  0  0  0  0
 10 11  2  0  0  0  0
 10 15  1  0  0  0  0
 11 12  1  0  0  0  0
 12 13  2  0  0  0  0
 13  3  1  0  0  0  0
 13 14  1  0  0  0  0
 14 15  2  0  0  0  0
 16 17  2  0  0  0  0
 16 21  1  0  0  0  0
 17 18  1  0  0  0  0
 18 19  2  0  0  0  0
 19  5  1  0  0  0  0
 19 20  1  0  0  0  0
 20 21  2  0  0  0  0
 22  3  1  0  0  0  0
 23  3  1  0  0  0  0
 24  5  1  0  0  0  0
 25  5  1  0  0  0  0
M  END
>  <CHROM.1>
51.52937507,14.59380062,8.57435056,-177.66629669,25.61548690,0.64584602,0.25872424
-1.01494375,3.07102672,-1.20922065,2.27455409

>  <Name>
1q8n_lig

>  <RI>
0

>  <Rbt.Current_Directory>
/home/itssahil/PROJECTS/Mol_Feturizer/New_Systems/rnas/1q8n

>  <Rbt.Executable>
rbdock ($Id: //depot/dev/client3/rdock/2013.1/src/exe/rbdock.cxx#4 $)

>  <Rbt.Library>
libRbt.so (2013.1, Build901 2013/11/27)

>  <Rbt.Parameter_File>
/export/apps/rDock/src/rDock_2013.1_src/data/scripts/dock_solv.prm

>  <Rbt.Receptor>
prm/pocket_docking_3.prm

>  <SCORE>
-53.0481

>  <SCORE.INTER>
-53.6545

>  <SCORE.INTER.CONST>
1

>  <SCORE.INTER.POLAR>
0

>  <SCORE.INTER.ROT>
5

>  <SCORE.INTER.SOLV>
10.211

>  <SCORE.INTER.VDW>
-46.1067

>  <SCORE.INTER.norm>
-2.14618

>  <SCORE.INTRA>
0.606423

>  <SCORE.INTRA.DIHEDRAL>
2.40824

>  <SCORE.INTRA.DIHEDRAL.0>
2.1627

>  <SCORE.INTRA.POLAR>
0

>  <SCORE.INTRA.POLAR.0>
0

>  <SCORE.INTRA.REPUL>
0

>  <SCORE.INTRA.REPUL.0>
0

>  <SCORE.INTRA.SOLV>
0.0287168

>  <SCORE.INTRA.SOLV.lig_0>
-5.95779

>  <SCORE.INTRA.VDW>
-0.612055

>  <SCORE.INTRA.VDW.0>
3.81702

>  <SCORE.INTRA.norm>
0.0242569

>  <SCORE.RESTR>
0

>  <SCORE.RESTR.CAVITY>
0

>  <SCORE.RESTR.norm>
0

>  <SCORE.SYSTEM>
0

>  <SCORE.SYSTEM.CONST>
0

>  <SCORE.SYSTEM.DIHEDRAL>
0

>  <SCORE.SYSTEM.SOLV>
0

>  <SCORE.SYSTEM.norm>
0

>  <SCORE.heavy>
25

>  <SCORE.norm>
-2.12192

>  <RMSD>
0.737

$$$$
1q8n_lig
 OpenBabel11021811403D
libRbt.so/2013.1/901 2013/11/27
 25 27  0  0  0  0  0  0  0  0999 V2000
    0.5552    0.8594   -1.7735 C   0  0  0  0  0  0  0  0  0  0  0  0
    0.4838    1.9558   -2.9811 C   0  0  0  0  0  0  0  0  0  0  0  0
    2.6282   -4.5749   -3.0359 N   0  0  0  0  0  0  0  0  0  0  0  0
   -0.2052    1.7580   -4.1305 C   0  0  0  0  0  0  0  0  0  0  0  0
   -1.0422    2.0229    3.8840 N   0  0  0  0  0  0  0  0  0  0  0  0
   -0.2395    2.7772   -5.2047 C   0  0  0  0  0  0  0  0  0  0  0  0
    0.4295    3.9422   -5.0466 C   0  0  0  0  0  0  0  0  0  0  0  0
    1.1651    4.1763   -3.8259 C   0  0  0  0  0  0  0  0  0  0  0  0
    1.1899    3.2488   -2.8655 C   0  0  0  0  0  0  0  0  0  0  0  0
    1.1223   -0.6314   -2.1144 C   0  0  0  0  0  0  0  0  0  0  0  0
    0.8866   -1.6744   -1.2915 C   0  0  0  0  0  0  0  0  0  0  0  0
    1.3965   -3.0421   -1.5868 C   0  0  0  0  0  0  0  0  0  0  0  0
    2.1212   -3.2737   -2.7139 C   0  0  0  0  0  0  0  0  0  0  0  0
    2.3852   -2.1435   -3.6243 C   0  0  0  0  0  0  0  0  0  0  0  0
    1.9203   -0.9183   -3.3424 C   0  0  0  0  0  0  0  0  0  0  0  0
    0.0684    1.2267   -0.2318 C   0  0  0  0  0  0  0  0  0  0  0  0
    0.5388    0.3837    0.9213 C   0  0  0  0  0  0  0  0  0  0  0  0
    0.1914    0.6314    2.1872 C   0  0  0  0  0  0  0  0  0  0  0  0
   -0.6848    1.7602    2.5214 C   0  0  0  0  0  0  0  0  0  0  0  0
   -1.1402    2.5449    1.5228 C   0  0  0  0  0  0  0  0  0  0  0  0
   -0.7552    2.2772    0.0962 C   0  0  0  0  0  0  0  0  0  0  0  0
    2.1377   -5.7630   -2.4064 C   0  0  0  0  0  0  0  0  0  0  0  0
    3.6587   -4.7225   -4.0164 C   0  0  0  0  0  0  0  0  0  0  0  0
   -1.7949    3.1963    4.2230 C   0  0  0  0  0  0  0  0  0  0  0  0
   -0.6637    1.1190    4.9466 C   0  0  0  0  0  0  0  0  0  0  0  0
  1  2  1  0  0  0  0
  1 10  1  0  0  0  0
  1 16  1  0  0  0  0
  2  4  2  0  0  0  0
  2  9  1  0  0  0  0
  4  6  1  0  0  0  0
  6  7  2  0  0  0  0
  7  8  1  0  0  0  0
  8  9  2  0  0  0  0
 10 11  2  0  0  0  0
 10 15  1  0  0  0  0
 11 12  1  0  0  0  0
 12 13  2  0  0  0  0
 13  3  1  0  0  0  0
 13 14  1  0  0  0  0
 14 15  2  0  0  0  0
 16 17  2  0  0  0  0
 16 21  1  0  0  0  0
 17 18  1  0  0  0  0
 18 19  2  0  0  0  0
 19  5  1  0  0  0  0
 19 20  1  0  0  0  0
 20 21  2  0  0  0  0
 22  3  1  0  0  0  0
 23  3  1  0  0  0  0
 24  5  1  0  0  0  0
 25  5  1  0  0  0  0
M  END
>  <CHROM.1>
57.38650547,-162.17256107,-160.53925844,16.39059514,174.17691390,0.65984636
0.23269306,-1.14134119,0.17941942,1.19685628,-0.92714959

>  <Name>
1q8n_lig

>  <RI>
0

>  <Rbt.Current_Directory>
/home/itssahil/PROJECTS/Mol_Feturizer/New_Systems/rnas/1q8n

>  <Rbt.Executable>
rbdock ($Id: //depot/dev/client3/rdock/2013.1/src/exe/rbdock.cxx#4 $)

>  <Rbt.Library>
libRbt.so (2013.1, Build901 2013/11/27)

>  <Rbt.Parameter_File>
/export/apps/rDock/src/rDock_2013.1_src/data/scripts/dock_solv.prm

>  <Rbt.Receptor>
prm/pocket_docking_2.prm

>  <SCORE>
-52.3261

>  <SCORE.INTER>
-53.1851

>  <SCORE.INTER.CONST>
1

>  <SCORE.INTER.POLAR>
0

>  <SCORE.INTER.ROT>
5

>  <SCORE.INTER.SOLV>
10.1154

>  <SCORE.INTER.VDW>
-45.7619

>  <SCORE.INTER.norm>
-2.12741

>  <SCORE.INTRA>
0.49454

>  <SCORE.INTRA.DIHEDRAL>
1.15136

>  <SCORE.INTRA.DIHEDRAL.0>
2.1627

>  <SCORE.INTRA.POLAR>
0

>  <SCORE.INTRA.POLAR.0>
0

>  <SCORE.INTRA.REPUL>
0

>  <SCORE.INTRA.REPUL.0>
0

>  <SCORE.INTRA.SOLV>
0.017341

>  <SCORE.INTRA.SOLV.lig_0>
-5.95779

>  <SCORE.INTRA.VDW>
-0.0898107

>  <SCORE.INTRA.VDW.0>
3.81702

>  <SCORE.INTRA.norm>
0.0197816

>  <SCORE.RESTR>
0.364465

>  <SCORE.RESTR.CAVITY>
0.364465

>  <SCORE.RESTR.norm>
0.0145786

>  <SCORE.SYSTEM>
0

>  <SCORE.SYSTEM.CONST>
0

>  <SCORE.SYSTEM.DIHEDRAL>
0

>  <SCORE.SYSTEM.SOLV>
0

>  <SCORE.SYSTEM.norm>
0

>  <SCORE.heavy>
25

>  <SCORE.norm>
-2.09305

>  <RMSD>
0.739

$$$$
1q8n_lig
 OpenBabel11021811403D
libRbt.so/2013.1/901 2013/11/27
 25 27  0  0  0  0  0  0  0  0999 V2000
    0.6445    0.9292   -1.7831 C   0  0  0  0  0  0  0  0  0  0  0  0
    0.6034    2.0468   -2.9725 C   0  0  0  0  0  0  0  0  0  0  0  0
    2.6353   -4.5277   -3.0797 N   0  0  0  0  0  0  0  0  0  0  0  0
    1.2411    3.2396   -2.8997 C   0  0  0  0  0  0  0  0  0  0  0  0
   -0.9999    2.0156    3.8762 N   0  0  0  0  0  0  0  0  0  0  0  0
    1.1734    4.2290   -4.0000 C   0  0  0  0  0  0  0  0  0  0  0  0
    0.4603    3.9463   -5.1142 C   0  0  0  0  0  0  0  0  0  0  0  0
   -0.2217    2.6772   -5.2153 C   0  0  0  0  0  0  0  0  0  0  0  0
   -0.1547    1.7943   -4.2157 C   0  0  0  0  0  0  0  0  0  0  0  0
    1.1909   -0.5648   -2.1436 C   0  0  0  0  0  0  0  0  0  0  0  0
    1.8605   -0.8069   -3.2896 C   0  0  0  0  0  0  0  0  0  0  0  0
    2.3664   -2.1643   -3.6351 C   0  0  0  0  0  0  0  0  0  0  0  0
    2.1631   -3.2069   -2.7860 C   0  0  0  0  0  0  0  0  0  0  0  0
    1.4344   -2.9570   -1.5280 C   0  0  0  0  0  0  0  0  0  0  0  0
    0.9842   -1.7294   -1.2335 C   0  0  0  0  0  0  0  0  0  0  0  0
    0.1479    1.2784   -0.2403 C   0  0  0  0  0  0  0  0  0  0  0  0
    0.5440    0.3750    0.8948 C   0  0  0  0  0  0  0  0  0  0  0  0
    0.1853    0.6049    2.1609 C   0  0  0  0  0  0  0  0  0  0  0  0
   -0.6301    1.7730    2.5132 C   0  0  0  0  0  0  0  0  0  0  0  0
   -1.0179    2.6128    1.5309 C   0  0  0  0  0  0  0  0  0  0  0  0
   -0.6195    2.3654    0.1044 C   0  0  0  0  0  0  0  0  0  0  0  0
    3.6350   -4.7782   -4.0729 C   0  0  0  0  0  0  0  0  0  0  0  0
    2.1089   -5.6533   -2.3719 C   0  0  0  0  0  0  0  0  0  0  0  0
   -1.7848    3.1660    4.2210 C   0  0  0  0  0  0  0  0  0  0  0  0
   -0.6021    1.1137    4.9335 C   0  0  0  0  0  0  0  0  0  0  0  0
  1  2  1  0  0  0  0
  1 10  1  0  0  0  0
  1 16  1  0  0  0  0
  2  4  2  0  0  0  0
  2  9  1  0  0  0  0
  4  6  1  0  0  0  0
  6  7  2  0  0  0  0
  7  8  1  0  0  0  0
  8  9  2  0  0  0  0
 10 11  2  0  0  0  0
 10 15  1  0  0  0  0
 11 12  1  0  0  0  0
 12 13  2  0  0  0  0
 13  3  1  0  0  0  0
 13 14  1  0  0  0  0
 14 15  2  0  0  0  0
 16 17  2  0  0  0  0
 16 21  1  0  0  0  0
 17 18  1  0  0  0  0
 18 19  2  0  0  0  0
 19  5  1  0  0  0  0
 19 20  1  0  0  0  0
 20 21  2  0  0  0  0
 22  3  1  0  0  0  0
 23  3  1  0  0  0  0
 24  5  1  0  0  0  0
 25  5  1  0  0  0  0
M  END
>  <CHROM.1>
-122.92233293,14.32931006,-163.15929457,17.03312437,179.31209317,0.69819047
0.25735197,-1.15940446,0.19287348,1.20154444,-0.92516812

>  <Name>
1q8n_lig

>  <RI>
0

>  <Rbt.Current_Directory>
/home/itssahil/PROJECTS/Mol_Feturizer/New_Systems/rnas/1q8n

>  <Rbt.Executable>
rbdock ($Id: //depot/dev/client3/rdock/2013.1/src/exe/rbdock.cxx#4 $)

>  <Rbt.Library>
libRbt.so (2013.1, Build901 2013/11/27)

>  <Rbt.Parameter_File>
/export/apps/rDock/src/rDock_2013.1_src/data/scripts/dock_solv.prm

>  <Rbt.Receptor>
prm/pocket_docking_2.prm

>  <SCORE>
-53.241

>  <SCORE.INTER>
-54.0828

>  <SCORE.INTER.CONST>
1

>  <SCORE.INTER.POLAR>
0

>  <SCORE.INTER.ROT>
5

>  <SCORE.INTER.SOLV>
9.97355

>  <SCORE.INTER.VDW>
-46.3131

>  <SCORE.INTER.norm>
-2.16331

>  <SCORE.INTRA>
0.513096

>  <SCORE.INTRA.DIHEDRAL>
1.09868

>  <SCORE.INTRA.DIHEDRAL.0>
2.1627

>  <SCORE.INTRA.POLAR>
0

>  <SCORE.INTRA.POLAR.0>
0

>  <SCORE.INTRA.REPUL>
0

>  <SCORE.INTRA.REPUL.0>
0

>  <SCORE.INTRA.SOLV>
0.0244043

>  <SCORE.INTRA.SOLV.lig_0>
-5.95779

>  <SCORE.INTRA.VDW>
-0.048445

>  <SCORE.INTRA.VDW.0>
3.81702

>  <SCORE.INTRA.norm>
0.0205238

>  <SCORE.RESTR>
0.32869

>  <SCORE.RESTR.CAVITY>
0.32869

>  <SCORE.RESTR.norm>
0.0131476

>  <SCORE.SYSTEM>
0

>  <SCORE.SYSTEM.CONST>
0

>  <SCORE.SYSTEM.DIHEDRAL>
0

>  <SCORE.SYSTEM.SOLV>
0

>  <SCORE.SYSTEM.norm>
0

>  <SCORE.heavy>
25

>  <SCORE.norm>
-2.12964

>  <RMSD>
0.740

$$$$
1q8n_lig
 OpenBabel11021811413D
libRbt.so/2013.1/901 2013/11/27
 25 27  0  0  0  0  0  0  0  0999 V2000
    0.6363    0.8355   -1.6308 C   0  0  0  0  0  0  0  0  0  0  0  0
    0.6032    2.0084   -2.7660 C   0  0  0  0  0  0  0  0  0  0  0  0
   -1.1545    2.2087    3.8764 N   0  0  0  0  0  0  0  0  0  0  0  0
    1.2321    3.2002   -2.6279 C   0  0  0  0  0  0  0  0  0  0  0  0
    2.6267   -4.6280   -3.0804 N   0  0  0  0  0  0  0  0  0  0  0  0
    1.1722    4.2406   -3.6805 C   0  0  0  0  0  0  0  0  0  0  0  0
    0.4756    4.0072   -4.8164 C   0  0  0  0  0  0  0  0  0  0  0  0
   -0.1968    2.7404   -4.9869 C   0  0  0  0  0  0  0  0  0  0  0  0
   -0.1369    1.8112   -4.0298 C   0  0  0  0  0  0  0  0  0  0  0  0
    0.1456    1.2066   -0.1203 C   0  0  0  0  0  0  0  0  0  0  0  0
    0.2402    0.3120    0.8853 C   0  0  0  0  0  0  0  0  0  0  0  0
   -0.2028    0.6334    2.2704 C   0  0  0  0  0  0  0  0  0  0  0  0
   -0.7187    1.8586    2.5568 C   0  0  0  0  0  0  0  0  0  0  0  0
   -0.8263    2.8480    1.4679 C   0  0  0  0  0  0  0  0  0  0  0  0
   -0.4245    2.5415    0.2265 C   0  0  0  0  0  0  0  0  0  0  0  0
    1.1524   -0.7011   -1.9789 C   0  0  0  0  0  0  0  0  0  0  0  0
    1.8731   -0.9729   -3.2705 C   0  0  0  0  0  0  0  0  0  0  0  0
    2.3228   -2.1850   -3.6065 C   0  0  0  0  0  0  0  0  0  0  0  0
    2.1306   -3.3344   -2.7145 C   0  0  0  0  0  0  0  0  0  0  0  0
    1.4842   -3.1463   -1.5452 C   0  0  0  0  0  0  0  0  0  0  0  0
    0.9758   -1.7880   -1.1561 C   0  0  0  0  0  0  0  0  0  0  0  0
   -1.8832    3.4105    4.1464 C   0  0  0  0  0  0  0  0  0  0  0  0
   -0.8670    1.3467    4.9807 C   0  0  0  0  0  0  0  0  0  0  0  0
    2.0805   -5.8108   -2.4793 C   0  0  0  0  0  0  0  0  0  0  0  0
    3.6779   -4.7786   -4.0610 C   0  0  0  0  0  0  0  0  0  0  0  0
  1  2  1  0  0  0  0
  1 10  1  0  0  0  0
  1 16  1  0  0  0  0
  2  4  2  0  0  0  0
  2  9  1  0  0  0  0
  4  6  1  0  0  0  0
  6  7  2  0  0  0  0
  7  8  1  0  0  0  0
  8  9  2  0  0  0  0
 10 11  2  0  0  0  0
 10 15  1  0  0  0  0
 11 12  1  0  0  0  0
 12 13  2  0  0  0  0
 13  3  1  0  0  0  0
 13 14  1  0  0  0  0
 14 15  2  0  0  0  0
 16 17  2  0  0  0  0
 16 21  1  0  0  0  0
 17 18  1  0  0  0  0
 18 19  2  0  0  0  0
 19  5  1  0  0  0  0
 19 20  1  0  0  0  0
 20 21  2  0  0  0  0
 22  3  1  0  0  0  0
 23  3  1  0  0  0  0
 24  5  1  0  0  0  0
 25  5  1  0  0  0  0
M  END
>  <CHROM.1>
55.41276134,-175.10314197,12.94485510,-170.17406469,-158.89994906,0.65944808
0.26384370,-1.07511641,3.08400609,-1.20286480,2.29359786

>  <Name>
1q8n_lig

>  <RI>
0

>  <Rbt.Current_Directory>
/home/itssahil/PROJECTS/Mol_Feturizer/New_Systems/rnas/1q8n

>  <Rbt.Executable>
rbdock ($Id: //depot/dev/client3/rdock/2013.1/src/exe/rbdock.cxx#4 $)

>  <Rbt.Library>
libRbt.so (2013.1, Build901 2013/11/27)

>  <Rbt.Parameter_File>
/export/apps/rDock/src/rDock_2013.1_src/data/scripts/dock_solv.prm

>  <Rbt.Receptor>
prm/pocket_docking_7.prm

>  <SCORE>
-52.8607

>  <SCORE.INTER>
-53.5497

>  <SCORE.INTER.CONST>
1

>  <SCORE.INTER.POLAR>
0

>  <SCORE.INTER.ROT>
5

>  <SCORE.INTER.SOLV>
10.1294

>  <SCORE.INTER.VDW>
-46.0096

>  <SCORE.INTER.norm>
-2.14199

>  <SCORE.INTRA>
0.689022

>  <SCORE.INTRA.DIHEDRAL>
2.02729

>  <SCORE.INTRA.DIHEDRAL.0>
2.1627

>  <SCORE.INTRA.POLAR>
0

>  <SCORE.INTRA.POLAR.0>
0

>  <SCORE.INTRA.REPUL>
0

>  <SCORE.INTRA.REPUL.0>
0

>  <SCORE.INTRA.SOLV>
0.0247907

>  <SCORE.INTRA.SOLV.lig_0>
-5.95779

>  <SCORE.INTRA.VDW>
-0.337018

>  <SCORE.INTRA.VDW.0>
3.81702

>  <SCORE.INTRA.norm>
0.0275609

>  <SCORE.RESTR>
0

>  <SCORE.RESTR.CAVITY>
0

>  <SCORE.RESTR.norm>
0

>  <SCORE.SYSTEM>
0

>  <SCORE.SYSTEM.CONST>
0

>  <SCORE.SYSTEM.DIHEDRAL>
0

>  <SCORE.SYSTEM.SOLV>
0

>  <SCORE.SYSTEM.norm>
0

>  <SCORE.heavy>
25

>  <SCORE.norm>
-2.11443

>  <RMSD>
0.741

$$$$
1q8n_lig
 OpenBabel11021811403D
libRbt.so/2013.1/901 2013/11/27
 25 27  0  0  0  0  0  0  0  0999 V2000
    0.6422    0.9244   -1.7806 C   0  0  0  0  0  0  0  0  0  0  0  0
    0.6010    2.0440   -2.9682 C   0  0  0  0  0  0  0  0  0  0  0  0
    2.6507   -4.5248   -3.0818 N   0  0  0  0  0  0  0  0  0  0  0  0
    1.2348    3.2388   -2.8914 C   0  0  0  0  0  0  0  0  0  0  0  0
   -1.0117    2.0039    3.8773 N   0  0  0  0  0  0  0  0  0  0  0  0
    1.1673    4.2298   -3.9901 C   0  0  0  0  0  0  0  0  0  0  0  0
    0.4584    3.9469   -5.1069 C   0  0  0  0  0  0  0  0  0  0  0  0
   -0.2195    2.6759   -5.2122 C   0  0  0  0  0  0  0  0  0  0  0  0
   -0.1526    1.7914   -4.2140 C   0  0  0  0  0  0  0  0  0  0  0  0
    1.1934   -0.5674   -2.1423 C   0  0  0  0  0  0  0  0  0  0  0  0
    1.8687   -0.8052   -3.2859 C   0  0  0  0  0  0  0  0  0  0  0  0
    2.3792   -2.1606   -3.6324 C   0  0  0  0  0  0  0  0  0  0  0  0
    2.1743   -3.2058   -2.7869 C   0  0  0  0  0  0  0  0  0  0  0  0
    1.4394   -2.9606   -1.5316 C   0  0  0  0  0  0  0  0  0  0  0  0
    0.9852   -1.7347   -1.2361 C   0  0  0  0  0  0  0  0  0  0  0  0
    0.1407    1.2696   -0.2385 C   0  0  0  0  0  0  0  0  0  0  0  0
    0.5826    0.3973    0.9040 C   0  0  0  0  0  0  0  0  0  0  0  0
    0.2224    0.6259    2.1698 C   0  0  0  0  0  0  0  0  0  0  0  0
   -0.6405    1.7619    2.5146 C   0  0  0  0  0  0  0  0  0  0  0  0
   -1.0703    2.5728    1.5256 C   0  0  0  0  0  0  0  0  0  0  0  0
   -0.6706    2.3265    0.0993 C   0  0  0  0  0  0  0  0  0  0  0  0
    2.1247   -5.6890   -2.4364 C   0  0  0  0  0  0  0  0  0  0  0  0
    3.6857   -4.7156   -4.0501 C   0  0  0  0  0  0  0  0  0  0  0  0
   -1.7823    3.1634    4.2240 C   0  0  0  0  0  0  0  0  0  0  0  0
   -0.6297    1.0925    4.9322 C   0  0  0  0  0  0  0  0  0  0  0  0
  1  2  1  0  0  0  0
  1 10  1  0  0  0  0
  1 16  1  0  0  0  0
  2  4  2  0  0  0  0
  2  9  1  0  0  0  0
  4  6  1  0  0  0  0
  6  7  2  0  0  0  0
  7  8  1  0  0  0  0
  8  9  2  0  0  0  0
 10 11  2  0  0  0  0
 10 15  1  0  0  0  0
 11 12  1  0  0  0  0
 12 13  2  0  0  0  0
 13  3  1  0  0  0  0
 13 14  1  0  0  0  0
 14 15  2  0  0  0  0
 16 17  2  0  0  0  0
 16 21  1  0  0  0  0
 17 18  1  0  0  0  0
 18 19  2  0  0  0  0
 19  5  1  0  0  0  0
 19 20  1  0  0  0  0
 20 21  2  0  0  0  0
 22  3  1  0  0  0  0
 23  3  1  0  0  0  0
 24  5  1  0  0  0  0
 25  5  1  0  0  0  0
M  END
>  <CHROM.1>
-122.95747674,14.45628956,-160.66835610,-160.99532833,175.90549132,0.69947508
0.25437734,-1.15936184,0.19578146,1.19781286,-0.92656803

>  <Name>
1q8n_lig

>  <RI>
0

>  <Rbt.Current_Directory>
/home/itssahil/PROJECTS/Mol_Feturizer/New_Systems/rnas/1q8n

>  <Rbt.Executable>
rbdock ($Id: //depot/dev/client3/rdock/2013.1/src/exe/rbdock.cxx#4 $)

>  <Rbt.Library>
libRbt.so (2013.1, Build901 2013/11/27)

>  <Rbt.Parameter_File>
/export/apps/rDock/src/rDock_2013.1_src/data/scripts/dock_solv.prm

>  <Rbt.Receptor>
prm/pocket_docking_2.prm

>  <SCORE>
-53.086

>  <SCORE.INTER>
-53.9227

>  <SCORE.INTER.CONST>
1

>  <SCORE.INTER.POLAR>
0

>  <SCORE.INTER.ROT>
5

>  <SCORE.INTER.SOLV>
9.97811

>  <SCORE.INTER.VDW>
-46.2078

>  <SCORE.INTER.norm>
-2.15691

>  <SCORE.INTRA>
0.524047

>  <SCORE.INTRA.DIHEDRAL>
1.42156

>  <SCORE.INTRA.DIHEDRAL.0>
2.1627

>  <SCORE.INTRA.POLAR>
0

>  <SCORE.INTRA.POLAR.0>
0

>  <SCORE.INTRA.REPUL>
0

>  <SCORE.INTRA.REPUL.0>
0

>  <SCORE.INTRA.SOLV>
0.023184

>  <SCORE.INTRA.SOLV.lig_0>
-5.95779

>  <SCORE.INTRA.VDW>
-0.198325

>  <SCORE.INTRA.VDW.0>
3.81702

>  <SCORE.INTRA.norm>
0.0209619

>  <SCORE.RESTR>
0.312575

>  <SCORE.RESTR.CAVITY>
0.312575

>  <SCORE.RESTR.norm>
0.012503

>  <SCORE.SYSTEM>
0

>  <SCORE.SYSTEM.CONST>
0

>  <SCORE.SYSTEM.DIHEDRAL>
0

>  <SCORE.SYSTEM.SOLV>
0

>  <SCORE.SYSTEM.norm>
0

>  <SCORE.heavy>
25

>  <SCORE.norm>
-2.12344

>  <RMSD>
0.744

$$$$
1q8n_lig
 OpenBabel11021811403D
libRbt.so/2013.1/901 2013/11/27
 25 27  0  0  0  0  0  0  0  0999 V2000
    0.6300    0.8632   -1.5685 C   0  0  0  0  0  0  0  0  0  0  0  0
    0.6110    2.0266   -2.7138 C   0  0  0  0  0  0  0  0  0  0  0  0
   -1.1589    2.2627    3.9327 N   0  0  0  0  0  0  0  0  0  0  0  0
    1.2354    3.2208   -2.5767 C   0  0  0  0  0  0  0  0  0  0  0  0
    2.5626   -4.6328   -2.9726 N   0  0  0  0  0  0  0  0  0  0  0  0
    1.1886    4.2523   -3.6386 C   0  0  0  0  0  0  0  0  0  0  0  0
    0.5087    4.0080   -4.7824 C   0  0  0  0  0  0  0  0  0  0  0  0
   -0.1587    2.7385   -4.9519 C   0  0  0  0  0  0  0  0  0  0  0  0
   -0.1107    1.8173   -3.9864 C   0  0  0  0  0  0  0  0  0  0  0  0
    0.1392    1.2519   -0.0624 C   0  0  0  0  0  0  0  0  0  0  0  0
   -0.4670    2.4298    0.1934 C   0  0  0  0  0  0  0  0  0  0  0  0
   -0.9216    2.8013    1.5620 C   0  0  0  0  0  0  0  0  0  0  0  0
   -0.7345    1.9445    2.6014 C   0  0  0  0  0  0  0  0  0  0  0  0
   -0.0750    0.6519    2.3366 C   0  0  0  0  0  0  0  0  0  0  0  0
    0.3297    0.3341    1.0989 C   0  0  0  0  0  0  0  0  0  0  0  0
    1.1323   -0.6812   -1.9021 C   0  0  0  0  0  0  0  0  0  0  0  0
    1.8005   -0.9826   -3.2152 C   0  0  0  0  0  0  0  0  0  0  0  0
    2.2367   -2.2023   -3.5414 C   0  0  0  0  0  0  0  0  0  0  0  0
    2.0812   -3.3310   -2.6165 C   0  0  0  0  0  0  0  0  0  0  0  0
    1.4825   -3.1160   -1.4266 C   0  0  0  0  0  0  0  0  0  0  0  0
    0.9895   -1.7489   -1.0483 C   0  0  0  0  0  0  0  0  0  0  0  0
   -1.9103    3.4431    4.2332 C   0  0  0  0  0  0  0  0  0  0  0  0
   -0.8361    1.3893    5.0181 C   0  0  0  0  0  0  0  0  0  0  0  0
    3.6102   -4.7785   -3.9420 C   0  0  0  0  0  0  0  0  0  0  0  0
    2.0165   -5.8263   -2.3669 C   0  0  0  0  0  0  0  0  0  0  0  0
  1  2  1  0  0  0  0
  1 10  1  0  0  0  0
  1 16  1  0  0  0  0
  2  4  2  0  0  0  0
  2  9  1  0  0  0  0
  4  6  1  0  0  0  0
  6  7  2  0  0  0  0
  7  8  1  0  0  0  0
  8  9  2  0  0  0  0
 10 11  2  0  0  0  0
 10 15  1  0  0  0  0
 11 12  1  0  0  0  0
 12 13  2  0  0  0  0
 13  3  1  0  0  0  0
 13 14  1  0  0  0  0
 14 15  2  0  0  0  0
 16 17  2  0  0  0  0
 16 21  1  0  0  0  0
 17 18  1  0  0  0  0
 18 19  2  0  0  0  0
 19  5  1  0  0  0  0
 19 20  1  0  0  0  0
 20 21  2  0  0  0  0
 22  3  1  0  0  0  0
 23  3  1  0  0  0  0
 24  5  1  0  0  0  0
 25  5  1  0  0  0  0
M  END
>  <CHROM.1>
54.46772750,10.48295200,10.30288075,5.72599810,23.71130542,0.64939930,0.27450804
-1.00236835,3.08584523,-1.20829407,2.29477429

>  <Name>
1q8n_lig

>  <RI>
0

>  <Rbt.Current_Directory>
/home/itssahil/PROJECTS/Mol_Feturizer/New_Systems/rnas/1q8n

>  <Rbt.Executable>
rbdock ($Id: //depot/dev/client3/rdock/2013.1/src/exe/rbdock.cxx#4 $)

>  <Rbt.Library>
libRbt.so (2013.1, Build901 2013/11/27)

>  <Rbt.Parameter_File>
/export/apps/rDock/src/rDock_2013.1_src/data/scripts/dock_solv.prm

>  <Rbt.Receptor>
prm/pocket_docking_3.prm

>  <SCORE>
-52.9408

>  <SCORE.INTER>
-53.5177

>  <SCORE.INTER.CONST>
1

>  <SCORE.INTER.POLAR>
0

>  <SCORE.INTER.ROT>
5

>  <SCORE.INTER.SOLV>
10.1931

>  <SCORE.INTER.VDW>
-46.0095

>  <SCORE.INTER.norm>
-2.14071

>  <SCORE.INTRA>
0.57688

>  <SCORE.INTRA.DIHEDRAL>
2.1921

>  <SCORE.INTRA.DIHEDRAL.0>
2.1627

>  <SCORE.INTRA.POLAR>
0

>  <SCORE.INTRA.POLAR.0>
0

>  <SCORE.INTRA.REPUL>
0

>  <SCORE.INTRA.REPUL.0>
0

>  <SCORE.INTRA.SOLV>
0.0259865

>  <SCORE.INTRA.SOLV.lig_0>
-5.95779

>  <SCORE.INTRA.VDW>
-0.532164

>  <SCORE.INTRA.VDW.0>
3.81702

>  <SCORE.INTRA.norm>
0.0230752

>  <SCORE.RESTR>
0

>  <SCORE.RESTR.CAVITY>
0

>  <SCORE.RESTR.norm>
0

>  <SCORE.SYSTEM>
0

>  <SCORE.SYSTEM.CONST>
0

>  <SCORE.SYSTEM.DIHEDRAL>
0

>  <SCORE.SYSTEM.SOLV>
0

>  <SCORE.SYSTEM.norm>
0

>  <SCORE.heavy>
25

>  <SCORE.norm>
-2.11763

>  <RMSD>
0.744

$$$$
1q8n_lig
 OpenBabel11021811413D
libRbt.so/2013.1/901 2013/11/27
 25 27  0  0  0  0  0  0  0  0999 V2000
    0.6095    0.8393   -1.5822 C   0  0  0  0  0  0  0  0  0  0  0  0
    0.5788    1.9964   -2.7336 C   0  0  0  0  0  0  0  0  0  0  0  0
   -1.1481    2.2623    3.9230 N   0  0  0  0  0  0  0  0  0  0  0  0
    1.1976    3.1946   -2.6059 C   0  0  0  0  0  0  0  0  0  0  0  0
    2.5541   -4.6570   -2.9685 N   0  0  0  0  0  0  0  0  0  0  0  0
    1.1403    4.2201   -3.6732 C   0  0  0  0  0  0  0  0  0  0  0  0
    0.4562    3.9661   -4.8122 C   0  0  0  0  0  0  0  0  0  0  0  0
   -0.2054    2.6922   -4.9718 C   0  0  0  0  0  0  0  0  0  0  0  0
   -0.1479    1.7765   -4.0015 C   0  0  0  0  0  0  0  0  0  0  0  0
    0.1270    1.2344   -0.0751 C   0  0  0  0  0  0  0  0  0  0  0  0
   -0.5331    2.3856    0.1687 C   0  0  0  0  0  0  0  0  0  0  0  0
   -0.9810    2.7624    1.5380 C   0  0  0  0  0  0  0  0  0  0  0  0
   -0.7323    1.9380    2.5905 C   0  0  0  0  0  0  0  0  0  0  0  0
   -0.0134    0.6747    2.3390 C   0  0  0  0  0  0  0  0  0  0  0  0
    0.3843    0.3518    1.1004 C   0  0  0  0  0  0  0  0  0  0  0  0
    1.1153   -0.7050   -1.9107 C   0  0  0  0  0  0  0  0  0  0  0  0
    1.7815   -1.0099   -3.2240 C   0  0  0  0  0  0  0  0  0  0  0  0
    2.2203   -2.2297   -3.5464 C   0  0  0  0  0  0  0  0  0  0  0  0
    2.0699   -3.3551   -2.6165 C   0  0  0  0  0  0  0  0  0  0  0  0
    1.4731   -3.1369   -1.4263 C   0  0  0  0  0  0  0  0  0  0  0  0
    0.9773   -1.7697   -1.0524 C   0  0  0  0  0  0  0  0  0  0  0  0
   -1.8813    3.4536    4.2258 C   0  0  0  0  0  0  0  0  0  0  0  0
   -0.8349    1.3842    5.0076 C   0  0  0  0  0  0  0  0  0  0  0  0
    3.5908   -4.8045   -3.9493 C   0  0  0  0  0  0  0  0  0  0  0  0
    2.0218   -5.8487   -2.3472 C   0  0  0  0  0  0  0  0  0  0  0  0
  1  2  1  0  0  0  0
  1 10  1  0  0  0  0
  1 16  1  0  0  0  0
  2  4  2  0  0  0  0
  2  9  1  0  0  0  0
  4  6  1  0  0  0  0
  6  7  2  0  0  0  0
  7  8  1  0  0  0  0
  8  9  2  0  0  0  0
 10 11  2  0  0  0  0
 10 15  1  0  0  0  0
 11 12  1  0  0  0  0
 12 13  2  0  0  0  0
 13  3  1  0  0  0  0
 13 14  1  0  0  0  0
 14 15  2  0  0  0  0
 16 17  2  0  0  0  0
 16 21  1  0  0  0  0
 17 18  1  0  0  0  0
 18 19  2  0  0  0  0
 19  5  1  0  0  0  0
 19 20  1  0  0  0  0
 20 21  2  0  0  0  0
 22  3  1  0  0  0  0
 23  3  1  0  0  0  0
 24  5  1  0  0  0  0
 25  5  1  0  0  0  0
M  END
>  <CHROM.1>
54.33749435,13.36979441,10.56693185,1.73156196,23.08972420,0.63548691,0.25400386
-1.01280240,3.06158983,-1.20935970,2.26639604

>  <Name>
1q8n_lig

>  <RI>
0

>  <Rbt.Current_Directory>
/home/itssahil/PROJECTS/Mol_Feturizer/New_Systems/rnas/1q8n

>  <Rbt.Executable>
rbdock ($Id: //depot/dev/client3/rdock/2013.1/src/exe/rbdock.cxx#4 $)

>  <Rbt.Library>
libRbt.so (2013.1, Build901 2013/11/27)

>  <Rbt.Parameter_File>
/export/apps/rDock/src/rDock_2013.1_src/data/scripts/dock_solv.prm

>  <Rbt.Receptor>
prm/pocket_docking_6.prm

>  <SCORE>
-53.0222

>  <SCORE.INTER>
-53.5268

>  <SCORE.INTER.CONST>
1

>  <SCORE.INTER.POLAR>
0

>  <SCORE.INTER.ROT>
5

>  <SCORE.INTER.SOLV>
10.2024

>  <SCORE.INTER.VDW>
-46.0187

>  <SCORE.INTER.norm>
-2.14107

>  <SCORE.INTRA>
0.504588

>  <SCORE.INTRA.DIHEDRAL>
1.97492

>  <SCORE.INTRA.DIHEDRAL.0>
2.1627

>  <SCORE.INTRA.POLAR>
0

>  <SCORE.INTRA.POLAR.0>
0

>  <SCORE.INTRA.REPUL>
0

>  <SCORE.INTRA.REPUL.0>
0

>  <SCORE.INTRA.SOLV>
0.0245838

>  <SCORE.INTRA.SOLV.lig_0>
-5.95779

>  <SCORE.INTRA.VDW>
-0.495164

>  <SCORE.INTRA.VDW.0>
3.81702

>  <SCORE.INTRA.norm>
0.0201835

>  <SCORE.RESTR>
0

>  <SCORE.RESTR.CAVITY>
0

>  <SCORE.RESTR.norm>
0

>  <SCORE.SYSTEM>
0

>  <SCORE.SYSTEM.CONST>
0

>  <SCORE.SYSTEM.DIHEDRAL>
0

>  <SCORE.SYSTEM.SOLV>
0

>  <SCORE.SYSTEM.norm>
0

>  <SCORE.heavy>
25

>  <SCORE.norm>
-2.12089

>  <RMSD>
0.744

$$$$
1q8n_lig
 OpenBabel11021811403D
libRbt.so/2013.1/901 2013/11/27
 25 27  0  0  0  0  0  0  0  0999 V2000
    0.5857    0.8411   -1.5856 C   0  0  0  0  0  0  0  0  0  0  0  0
    0.5362    1.9935   -2.7411 C   0  0  0  0  0  0  0  0  0  0  0  0
   -1.1545    2.2660    3.9246 N   0  0  0  0  0  0  0  0  0  0  0  0
   -0.0406    1.8123   -3.9532 C   0  0  0  0  0  0  0  0  0  0  0  0
    2.5789   -4.6399   -2.9637 N   0  0  0  0  0  0  0  0  0  0  0  0
   -0.0588    2.8831   -4.9765 C   0  0  0  0  0  0  0  0  0  0  0  0
    0.5109    4.0799   -4.7062 C   0  0  0  0  0  0  0  0  0  0  0  0
    1.1255    4.2965   -3.4173 C   0  0  0  0  0  0  0  0  0  0  0  0
    1.1371    3.3226   -2.5038 C   0  0  0  0  0  0  0  0  0  0  0  0
    0.1080    1.2367   -0.0772 C   0  0  0  0  0  0  0  0  0  0  0  0
   -0.5545    2.3863    0.1677 C   0  0  0  0  0  0  0  0  0  0  0  0
   -0.9982    2.7636    1.5383 C   0  0  0  0  0  0  0  0  0  0  0  0
   -0.7430    1.9412    2.5909 C   0  0  0  0  0  0  0  0  0  0  0  0
   -0.0215    0.6796    2.3382 C   0  0  0  0  0  0  0  0  0  0  0  0
    0.3724    0.3563    1.0985 C   0  0  0  0  0  0  0  0  0  0  0  0
    1.1057   -0.6991   -1.9115 C   0  0  0  0  0  0  0  0  0  0  0  0
    1.7635   -1.0028   -3.2293 C   0  0  0  0  0  0  0  0  0  0  0  0
    2.2130   -2.2191   -3.5498 C   0  0  0  0  0  0  0  0  0  0  0  0
    2.0834   -3.3417   -2.6135 C   0  0  0  0  0  0  0  0  0  0  0  0
    1.4948   -3.1246   -1.4190 C   0  0  0  0  0  0  0  0  0  0  0  0
    0.9871   -1.7612   -1.0470 C   0  0  0  0  0  0  0  0  0  0  0  0
   -0.8380    1.4342    5.0455 C   0  0  0  0  0  0  0  0  0  0  0  0
   -1.9073    3.4559    4.1750 C   0  0  0  0  0  0  0  0  0  0  0  0
    2.0495   -5.8133   -2.3304 C   0  0  0  0  0  0  0  0  0  0  0  0
    3.6128   -4.8045   -3.9604 C   0  0  0  0  0  0  0  0  0  0  0  0
  1  2  1  0  0  0  0
  1 10  1  0  0  0  0
  1 16  1  0  0  0  0
  2  4  2  0  0  0  0
  2  9  1  0  0  0  0
  4  6  1  0  0  0  0
  6  7  2  0  0  0  0
  7  8  1  0  0  0  0
  8  9  2  0  0  0  0
 10 11  2  0  0  0  0
 10 15  1  0  0  0  0
 11 12  1  0  0  0  0
 12 13  2  0  0  0  0
 13  3  1  0  0  0  0
 13 14  1  0  0  0  0
 14 15  2  0  0  0  0
 16 17  2  0  0  0  0
 16 21  1  0  0  0  0
 17 18  1  0  0  0  0
 18 19  2  0  0  0  0
 19  5  1  0  0  0  0
 19 20  1  0  0  0  0
 20 21  2  0  0  0  0
 22  3  1  0  0  0  0
 23  3  1  0  0  0  0
 24  5  1  0  0  0  0
 25  5  1  0  0  0  0
M  END
>  <CHROM.1>
-130.17006136,12.90068395,10.38053058,-177.18021742,-156.80899107,0.64089651
0.28317108,-0.99322497,3.10129711,-1.20724084,2.29409145

>  <Name>
1q8n_lig

>  <RI>
0

>  <Rbt.Current_Directory>
/home/itssahil/PROJECTS/Mol_Feturizer/New_Systems/rnas/1q8n

>  <Rbt.Executable>
rbdock ($Id: //depot/dev/client3/rdock/2013.1/src/exe/rbdock.cxx#4 $)

>  <Rbt.Library>
libRbt.so (2013.1, Build901 2013/11/27)

>  <Rbt.Parameter_File>
/export/apps/rDock/src/rDock_2013.1_src/data/scripts/dock_solv.prm

>  <Rbt.Receptor>
prm/blind_docking_80.prm

>  <SCORE>
-52.1987

>  <SCORE.INTER>
-52.823

>  <SCORE.INTER.CONST>
1

>  <SCORE.INTER.POLAR>
0

>  <SCORE.INTER.ROT>
5

>  <SCORE.INTER.SOLV>
10.3113

>  <SCORE.INTER.VDW>
-45.5857

>  <SCORE.INTER.norm>
-2.11292

>  <SCORE.INTRA>
0.624267

>  <SCORE.INTRA.DIHEDRAL>
2.01068

>  <SCORE.INTRA.DIHEDRAL.0>
2.1627

>  <SCORE.INTRA.POLAR>
0

>  <SCORE.INTRA.POLAR.0>
0

>  <SCORE.INTRA.REPUL>
0

>  <SCORE.INTRA.REPUL.0>
0

>  <SCORE.INTRA.SOLV>
0.031618

>  <SCORE.INTRA.SOLV.lig_0>
-5.95779

>  <SCORE.INTRA.VDW>
-0.396882

>  <SCORE.INTRA.VDW.0>
3.81702

>  <SCORE.INTRA.norm>
0.0249707

>  <SCORE.RESTR>
0

>  <SCORE.RESTR.CAVITY>
0

>  <SCORE.RESTR.norm>
0

>  <SCORE.SYSTEM>
0

>  <SCORE.SYSTEM.CONST>
0

>  <SCORE.SYSTEM.DIHEDRAL>
0

>  <SCORE.SYSTEM.SOLV>
0

>  <SCORE.SYSTEM.norm>
0

>  <SCORE.heavy>
25

>  <SCORE.norm>
-2.08795

>  <RMSD>
0.746

$$$$
1q8n_lig
 OpenBabel11021811413D
libRbt.so/2013.1/901 2013/11/27
 25 27  0  0  0  0  0  0  0  0999 V2000
    0.5922    0.8504   -1.5772 C   0  0  0  0  0  0  0  0  0  0  0  0
    0.5472    2.0046   -2.7310 C   0  0  0  0  0  0  0  0  0  0  0  0
   -1.1657    2.2681    3.9293 N   0  0  0  0  0  0  0  0  0  0  0  0
    0.0150    1.8110   -3.9616 C   0  0  0  0  0  0  0  0  0  0  0  0
    2.5789   -4.6313   -2.9619 N   0  0  0  0  0  0  0  0  0  0  0  0
   -0.0006    2.8840   -4.9825 C   0  0  0  0  0  0  0  0  0  0  0  0
    0.5261    4.0955   -4.6914 C   0  0  0  0  0  0  0  0  0  0  0  0
    1.0926    4.3253   -3.3829 C   0  0  0  0  0  0  0  0  0  0  0  0
    1.1024    3.3493   -2.4716 C   0  0  0  0  0  0  0  0  0  0  0  0
    0.1094    1.2440   -0.0698 C   0  0  0  0  0  0  0  0  0  0  0  0
   -0.5940    2.3706    0.1675 C   0  0  0  0  0  0  0  0  0  0  0  0
   -1.0430    2.7457    1.5370 C   0  0  0  0  0  0  0  0  0  0  0  0
   -0.7507    1.9447    2.5963 C   0  0  0  0  0  0  0  0  0  0  0  0
    0.0158    0.7082    2.3521 C   0  0  0  0  0  0  0  0  0  0  0  0
    0.4138    0.3866    1.1132 C   0  0  0  0  0  0  0  0  0  0  0  0
    1.1125   -0.6896   -1.9035 C   0  0  0  0  0  0  0  0  0  0  0  0
    1.7260   -1.0037   -3.2401 C   0  0  0  0  0  0  0  0  0  0  0  0
    2.1735   -2.2203   -3.5624 C   0  0  0  0  0  0  0  0  0  0  0  0
    2.0857   -3.3328   -2.6093 C   0  0  0  0  0  0  0  0  0  0  0  0
    1.5378   -3.1061   -1.3973 C   0  0  0  0  0  0  0  0  0  0  0  0
    1.0328   -1.7423   -1.0233 C   0  0  0  0  0  0  0  0  0  0  0  0
   -0.8881    1.4145    5.0441 C   0  0  0  0  0  0  0  0  0  0  0  0
   -1.8826    3.4788    4.1852 C   0  0  0  0  0  0  0  0  0  0  0  0
    3.6266   -4.7702   -3.9321 C   0  0  0  0  0  0  0  0  0  0  0  0
    2.0446   -5.8278   -2.3518 C   0  0  0  0  0  0  0  0  0  0  0  0
  1  2  1  0  0  0  0
  1 10  1  0  0  0  0
  1 16  1  0  0  0  0
  2  4  2  0  0  0  0
  2  9  1  0  0  0  0
  4  6  1  0  0  0  0
  6  7  2  0  0  0  0
  7  8  1  0  0  0  0
  8  9  2  0  0  0  0
 10 11  2  0  0  0  0
 10 15  1  0  0  0  0
 11 12  1  0  0  0  0
 12 13  2  0  0  0  0
 13  3  1  0  0  0  0
 13 14  1  0  0  0  0
 14 15  2  0  0  0  0
 16 17  2  0  0  0  0
 16 21  1  0  0  0  0
 17 18  1  0  0  0  0
 18 19  2  0  0  0  0
 19  5  1  0  0  0  0
 19 20  1  0  0  0  0
 20 21  2  0  0  0  0
 22  3  1  0  0  0  0
 23  3  1  0  0  0  0
 24  5  1  0  0  0  0
 25  5  1  0  0  0  0
M  END
>  <CHROM.1>
-132.49734903,15.24357723,7.99493584,178.54184069,26.55941718,0.64308981
0.29166765,-0.98606494,3.10488162,-1.20641004,2.29822140

>  <Name>
1q8n_lig

>  <RI>
0

>  <Rbt.Current_Directory>
/home/itssahil/PROJECTS/Mol_Feturizer/New_Systems/rnas/1q8n

>  <Rbt.Executable>
rbdock ($Id: //depot/dev/client3/rdock/2013.1/src/exe/rbdock.cxx#4 $)

>  <Rbt.Library>
libRbt.so (2013.1, Build901 2013/11/27)

>  <Rbt.Parameter_File>
/export/apps/rDock/src/rDock_2013.1_src/data/scripts/dock_solv.prm

>  <Rbt.Receptor>
prm/pocket_docking_7.prm

>  <SCORE>
-52.0484

>  <SCORE.INTER>
-52.7337

>  <SCORE.INTER.CONST>
1

>  <SCORE.INTER.POLAR>
0

>  <SCORE.INTER.ROT>
5

>  <SCORE.INTER.SOLV>
10.3379

>  <SCORE.INTER.VDW>
-45.5351

>  <SCORE.INTER.norm>
-2.10935

>  <SCORE.INTRA>
0.685333

>  <SCORE.INTRA.DIHEDRAL>
2.56179

>  <SCORE.INTRA.DIHEDRAL.0>
2.1627

>  <SCORE.INTRA.POLAR>
0

>  <SCORE.INTRA.POLAR.0>
0

>  <SCORE.INTRA.REPUL>
0

>  <SCORE.INTRA.REPUL.0>
0

>  <SCORE.INTRA.SOLV>
0.0344029

>  <SCORE.INTRA.SOLV.lig_0>
-5.95779

>  <SCORE.INTRA.VDW>
-0.612765

>  <SCORE.INTRA.VDW.0>
3.81702

>  <SCORE.INTRA.norm>
0.0274133

>  <SCORE.RESTR>
0

>  <SCORE.RESTR.CAVITY>
0

>  <SCORE.RESTR.norm>
0

>  <SCORE.SYSTEM>
0

>  <SCORE.SYSTEM.CONST>
0

>  <SCORE.SYSTEM.DIHEDRAL>
0

>  <SCORE.SYSTEM.SOLV>
0

>  <SCORE.SYSTEM.norm>
0

>  <SCORE.heavy>
25

>  <SCORE.norm>
-2.08194

>  <RMSD>
0.753

$$$$
1q8n_lig
 OpenBabel11021811403D
libRbt.so/2013.1/901 2013/11/27
 25 27  0  0  0  0  0  0  0  0999 V2000
    0.6123    0.8296   -1.5710 C   0  0  0  0  0  0  0  0  0  0  0  0
    0.5777    1.9881   -2.7208 C   0  0  0  0  0  0  0  0  0  0  0  0
   -1.1500    2.2394    3.9362 N   0  0  0  0  0  0  0  0  0  0  0  0
    1.1862    3.1910   -2.5885 C   0  0  0  0  0  0  0  0  0  0  0  0
    2.5726   -4.6589   -2.9663 N   0  0  0  0  0  0  0  0  0  0  0  0
    1.1256    4.2176   -3.6545 C   0  0  0  0  0  0  0  0  0  0  0  0
    0.4490    3.9598   -4.7972 C   0  0  0  0  0  0  0  0  0  0  0  0
   -0.2015    2.6809   -4.9617 C   0  0  0  0  0  0  0  0  0  0  0  0
   -0.1412    1.7642   -3.9925 C   0  0  0  0  0  0  0  0  0  0  0  0
    0.1285    1.2210   -0.0633 C   0  0  0  0  0  0  0  0  0  0  0  0
   -0.5366    2.3691    0.1818 C   0  0  0  0  0  0  0  0  0  0  0  0
   -0.9858    2.7426    1.5516 C   0  0  0  0  0  0  0  0  0  0  0  0
   -0.7332    1.9182    2.6032 C   0  0  0  0  0  0  0  0  0  0  0  0
   -0.0088    0.6583    2.3503 C   0  0  0  0  0  0  0  0  0  0  0  0
    0.3900    0.3384    1.1113 C   0  0  0  0  0  0  0  0  0  0  0  0
    1.1233   -0.7126   -1.9015 C   0  0  0  0  0  0  0  0  0  0  0  0
    1.7747   -1.0172   -3.2222 C   0  0  0  0  0  0  0  0  0  0  0  0
    2.2169   -2.2352   -3.5467 C   0  0  0  0  0  0  0  0  0  0  0  0
    2.0849   -3.3589   -2.6119 C   0  0  0  0  0  0  0  0  0  0  0  0
    1.5018   -3.1409   -1.4148 C   0  0  0  0  0  0  0  0  0  0  0  0
    1.0025   -1.7757   -1.0385 C   0  0  0  0  0  0  0  0  0  0  0  0
   -0.8388    1.4040    5.0559 C   0  0  0  0  0  0  0  0  0  0  0  0
   -1.9028    3.4291    4.1870 C   0  0  0  0  0  0  0  0  0  0  0  0
    2.0250   -5.8321   -2.3482 C   0  0  0  0  0  0  0  0  0  0  0  0
    3.6165   -4.8255   -3.9521 C   0  0  0  0  0  0  0  0  0  0  0  0
  1  2  1  0  0  0  0
  1 10  1  0  0  0  0
  1 16  1  0  0  0  0
  2  4  2  0  0  0  0
  2  9  1  0  0  0  0
  4  6  1  0  0  0  0
  6  7  2  0  0  0  0
  7  8  1  0  0  0  0
  8  9  2  0  0  0  0
 10 11  2  0  0  0  0
 10 15  1  0  0  0  0
 11 12  1  0  0  0  0
 12 13  2  0  0  0  0
 13  3  1  0  0  0  0
 13 14  1  0  0  0  0
 14 15  2  0  0  0  0
 16 17  2  0  0  0  0
 16 21  1  0  0  0  0
 17 18  1  0  0  0  0
 18 19  2  0  0  0  0
 19  5  1  0  0  0  0
 19 20  1  0  0  0  0
 20 21  2  0  0  0  0
 22  3  1  0  0  0  0
 23  3  1  0  0  0  0
 24  5  1  0  0  0  0
 25  5  1  0  0  0  0
M  END
>  <CHROM.1>
53.95368640,13.43463015,9.79384861,-177.32233549,-155.84101107,0.63818261
0.24531673,-1.00384821,3.05521101,-1.20713022,2.26130131

>  <Name>
1q8n_lig

>  <RI>
0

>  <Rbt.Current_Directory>
/home/itssahil/PROJECTS/Mol_Feturizer/New_Systems/rnas/1q8n

>  <Rbt.Executable>
rbdock ($Id: //depot/dev/client3/rdock/2013.1/src/exe/rbdock.cxx#4 $)

>  <Rbt.Library>
libRbt.so (2013.1, Build901 2013/11/27)

>  <Rbt.Parameter_File>
/export/apps/rDock/src/rDock_2013.1_src/data/scripts/dock_solv.prm

>  <Rbt.Receptor>
prm/blind_docking_100.prm

>  <SCORE>
-53.1041

>  <SCORE.INTER>
-53.7005

>  <SCORE.INTER.CONST>
1

>  <SCORE.INTER.POLAR>
0

>  <SCORE.INTER.ROT>
5

>  <SCORE.INTER.SOLV>
10.1704

>  <SCORE.INTER.VDW>
-46.1238

>  <SCORE.INTER.norm>
-2.14802

>  <SCORE.INTRA>
0.596467

>  <SCORE.INTRA.DIHEDRAL>
2.16659

>  <SCORE.INTRA.DIHEDRAL.0>
2.1627

>  <SCORE.INTRA.POLAR>
0

>  <SCORE.INTRA.POLAR.0>
0

>  <SCORE.INTRA.REPUL>
0

>  <SCORE.INTRA.REPUL.0>
0

>  <SCORE.INTRA.SOLV>
0.0254283

>  <SCORE.INTRA.SOLV.lig_0>
-5.95779

>  <SCORE.INTRA.VDW>
-0.499543

>  <SCORE.INTRA.VDW.0>
3.81702

>  <SCORE.INTRA.norm>
0.0238587

>  <SCORE.RESTR>
0

>  <SCORE.RESTR.CAVITY>
0

>  <SCORE.RESTR.norm>
0

>  <SCORE.SYSTEM>
0

>  <SCORE.SYSTEM.CONST>
0

>  <SCORE.SYSTEM.DIHEDRAL>
0

>  <SCORE.SYSTEM.SOLV>
0

>  <SCORE.SYSTEM.norm>
0

>  <SCORE.heavy>
25

>  <SCORE.norm>
-2.12416

>  <RMSD>
0.754

$$$$
1q8n_lig
 OpenBabel11021811403D
libRbt.so/2013.1/901 2013/11/27
 25 27  0  0  0  0  0  0  0  0999 V2000
    0.6333    0.8487   -1.5611 C   0  0  0  0  0  0  0  0  0  0  0  0
    0.5681    1.9841   -2.7324 C   0  0  0  0  0  0  0  0  0  0  0  0
    2.5859   -4.5907   -2.9831 N   0  0  0  0  0  0  0  0  0  0  0  0
    1.2150    3.1720   -2.6588 C   0  0  0  0  0  0  0  0  0  0  0  0
   -1.1818    2.2082    3.9860 N   0  0  0  0  0  0  0  0  0  0  0  0
    1.1248    4.1780   -3.7421 C   0  0  0  0  0  0  0  0  0  0  0  0
    0.3809    3.9163   -4.8413 C   0  0  0  0  0  0  0  0  0  0  0  0
   -0.3117    2.6530   -4.9431 C   0  0  0  0  0  0  0  0  0  0  0  0
   -0.2240    1.7549   -3.9588 C   0  0  0  0  0  0  0  0  0  0  0  0
    1.1687   -0.6405   -1.9560 C   0  0  0  0  0  0  0  0  0  0  0  0
    1.7535   -0.8801   -3.1480 C   0  0  0  0  0  0  0  0  0  0  0  0
    2.2482   -2.2332   -3.5254 C   0  0  0  0  0  0  0  0  0  0  0  0
    2.1214   -3.2742   -2.6597 C   0  0  0  0  0  0  0  0  0  0  0  0
    1.4860   -3.0269   -1.3515 C   0  0  0  0  0  0  0  0  0  0  0  0
    1.0446   -1.8032   -1.0287 C   0  0  0  0  0  0  0  0  0  0  0  0
    0.1714    1.1753   -0.0027 C   0  0  0  0  0  0  0  0  0  0  0  0
   -0.6424    2.4048    0.2935 C   0  0  0  0  0  0  0  0  0  0  0  0
   -1.0544    2.7201    1.5245 C   0  0  0  0  0  0  0  0  0  0  0  0
   -0.7255    1.8658    2.6715 C   0  0  0  0  0  0  0  0  0  0  0  0
    0.0083    0.7531    2.4615 C   0  0  0  0  0  0  0  0  0  0  0  0
    0.4756    0.3877    1.0820 C   0  0  0  0  0  0  0  0  0  0  0  0
    2.0580   -5.7629   -2.3539 C   0  0  0  0  0  0  0  0  0  0  0  0
    3.6102   -4.7708   -3.9647 C   0  0  0  0  0  0  0  0  0  0  0  0
   -1.9274    3.4145    4.2035 C   0  0  0  0  0  0  0  0  0  0  0  0
   -0.9123    1.3534    5.1201 C   0  0  0  0  0  0  0  0  0  0  0  0
  1  2  1  0  0  0  0
  1 10  1  0  0  0  0
  1 16  1  0  0  0  0
  2  4  2  0  0  0  0
  2  9  1  0  0  0  0
  4  6  1  0  0  0  0
  6  7  2  0  0  0  0
  7  8  1  0  0  0  0
  8  9  2  0  0  0  0
 10 11  2  0  0  0  0
 10 15  1  0  0  0  0
 11 12  1  0  0  0  0
 12 13  2  0  0  0  0
 13  3  1  0  0  0  0
 13 14  1  0  0  0  0
 14 15  2  0  0  0  0
 16 17  2  0  0  0  0
 16 21  1  0  0  0  0
 17 18  1  0  0  0  0
 18 19  2  0  0  0  0
 19  5  1  0  0  0  0
 19 20  1  0  0  0  0
 20 21  2  0  0  0  0
 22  3  1  0  0  0  0
 23  3  1  0  0  0  0
 24  5  1  0  0  0  0
 25  5  1  0  0  0  0
M  END
>  <CHROM.1>
-122.56764199,11.01267127,15.69213157,-156.63956497,-2.12457874,0.62886266
0.26188032,-0.99136937,0.13660327,1.19961410,-0.90664084

>  <Name>
1q8n_lig

>  <RI>
0

>  <Rbt.Current_Directory>
/home/itssahil/PROJECTS/Mol_Feturizer/New_Systems/rnas/1q8n

>  <Rbt.Executable>
rbdock ($Id: //depot/dev/client3/rdock/2013.1/src/exe/rbdock.cxx#4 $)

>  <Rbt.Library>
libRbt.so (2013.1, Build901 2013/11/27)

>  <Rbt.Parameter_File>
/export/apps/rDock/src/rDock_2013.1_src/data/scripts/dock_solv.prm

>  <Rbt.Receptor>
prm/blind_docking_40.prm

>  <SCORE>
-53.9871

>  <SCORE.INTER>
-54.517

>  <SCORE.INTER.CONST>
1

>  <SCORE.INTER.POLAR>
0

>  <SCORE.INTER.ROT>
5

>  <SCORE.INTER.SOLV>
10.0545

>  <SCORE.INTER.VDW>
-46.6295

>  <SCORE.INTER.norm>
-2.18068

>  <SCORE.INTRA>
0.529887

>  <SCORE.INTRA.DIHEDRAL>
2.0267

>  <SCORE.INTRA.DIHEDRAL.0>
2.1627

>  <SCORE.INTRA.POLAR>
0

>  <SCORE.INTRA.POLAR.0>
0

>  <SCORE.INTRA.REPUL>
0

>  <SCORE.INTRA.REPUL.0>
0

>  <SCORE.INTRA.SOLV>
0.0187987

>  <SCORE.INTRA.SOLV.lig_0>
-5.95779

>  <SCORE.INTRA.VDW>
-0.492863

>  <SCORE.INTRA.VDW.0>
3.81702

>  <SCORE.INTRA.norm>
0.0211955

>  <SCORE.RESTR>
0

>  <SCORE.RESTR.CAVITY>
0

>  <SCORE.RESTR.norm>
0

>  <SCORE.SYSTEM>
0

>  <SCORE.SYSTEM.CONST>
0

>  <SCORE.SYSTEM.DIHEDRAL>
0

>  <SCORE.SYSTEM.SOLV>
0

>  <SCORE.SYSTEM.norm>
0

>  <SCORE.heavy>
25

>  <SCORE.norm>
-2.15949

>  <RMSD>
0.755

$$$$
1q8n_lig
 OpenBabel11021811403D
libRbt.so/2013.1/901 2013/11/27
 25 27  0  0  0  0  0  0  0  0999 V2000
    0.6516    0.8463   -1.5506 C   0  0  0  0  0  0  0  0  0  0  0  0
    0.5892    1.9846   -2.7193 C   0  0  0  0  0  0  0  0  0  0  0  0
    2.6171   -4.5765   -3.0175 N   0  0  0  0  0  0  0  0  0  0  0  0
    1.2331    3.1737   -2.6397 C   0  0  0  0  0  0  0  0  0  0  0  0
   -1.1794    2.1926    3.9944 N   0  0  0  0  0  0  0  0  0  0  0  0
    1.1456    4.1824   -3.7208 C   0  0  0  0  0  0  0  0  0  0  0  0
    0.4074    3.9217   -4.8240 C   0  0  0  0  0  0  0  0  0  0  0  0
   -0.2819    2.6572   -4.9323 C   0  0  0  0  0  0  0  0  0  0  0  0
   -0.1967    1.7567   -3.9499 C   0  0  0  0  0  0  0  0  0  0  0  0
    1.1895   -0.6415   -1.9475 C   0  0  0  0  0  0  0  0  0  0  0  0
    0.9744   -1.7012   -1.1406 C   0  0  0  0  0  0  0  0  0  0  0  0
    1.4581   -3.0665   -1.4869 C   0  0  0  0  0  0  0  0  0  0  0  0
    2.1367   -3.2785   -2.6461 C   0  0  0  0  0  0  0  0  0  0  0  0
    2.3775   -2.1297   -3.5396 C   0  0  0  0  0  0  0  0  0  0  0  0
    1.9368   -0.9071   -3.2117 C   0  0  0  0  0  0  0  0  0  0  0  0
    0.1847    1.1688    0.0071 C   0  0  0  0  0  0  0  0  0  0  0  0
   -0.6171    2.4054    0.3063 C   0  0  0  0  0  0  0  0  0  0  0  0
   -1.0324    2.7179    1.5368 C   0  0  0  0  0  0  0  0  0  0  0  0
   -0.7195    1.8531    2.6804 C   0  0  0  0  0  0  0  0  0  0  0  0
    0.0030    0.7336    2.4677 C   0  0  0  0  0  0  0  0  0  0  0  0
    0.4739    0.3713    1.0887 C   0  0  0  0  0  0  0  0  0  0  0  0
    3.6229   -4.7611   -4.0189 C   0  0  0  0  0  0  0  0  0  0  0  0
    2.0932   -5.7458   -2.3823 C   0  0  0  0  0  0  0  0  0  0  0  0
   -0.8952    1.3325    5.1070 C   0  0  0  0  0  0  0  0  0  0  0  0
   -1.9310    3.4034    4.2367 C   0  0  0  0  0  0  0  0  0  0  0  0
  1  2  1  0  0  0  0
  1 10  1  0  0  0  0
  1 16  1  0  0  0  0
  2  4  2  0  0  0  0
  2  9  1  0  0  0  0
  4  6  1  0  0  0  0
  6  7  2  0  0  0  0
  7  8  1  0  0  0  0
  8  9  2  0  0  0  0
 10 11  2  0  0  0  0
 10 15  1  0  0  0  0
 11 12  1  0  0  0  0
 12 13  2  0  0  0  0
 13  3  1  0  0  0  0
 13 14  1  0  0  0  0
 14 15  2  0  0  0  0
 16 17  2  0  0  0  0
 16 21  1  0  0  0  0
 17 18  1  0  0  0  0
 18 19  2  0  0  0  0
 19  5  1  0  0  0  0
 19 20  1  0  0  0  0
 20 21  2  0  0  0  0
 22  3  1  0  0  0  0
 23  3  1  0  0  0  0
 24  5  1  0  0  0  0
 25  5  1  0  0  0  0
M  END
>  <CHROM.1>
-122.69000100,-164.02218015,14.96465812,-162.61417843,178.76402917,0.65144567
0.26531657,-1.00120931,0.13177889,1.19721913,-0.89206889

>  <Name>
1q8n_lig

>  <RI>
0

>  <Rbt.Current_Directory>
/home/itssahil/PROJECTS/Mol_Feturizer/New_Systems/rnas/1q8n

>  <Rbt.Executable>
rbdock ($Id: //depot/dev/client3/rdock/2013.1/src/exe/rbdock.cxx#4 $)

>  <Rbt.Library>
libRbt.so (2013.1, Build901 2013/11/27)

>  <Rbt.Parameter_File>
/export/apps/rDock/src/rDock_2013.1_src/data/scripts/dock_solv.prm

>  <Rbt.Receptor>
prm/pocket_docking_3.prm

>  <SCORE>
-53.728

>  <SCORE.INTER>
-54.1665

>  <SCORE.INTER.CONST>
1

>  <SCORE.INTER.POLAR>
0

>  <SCORE.INTER.ROT>
5

>  <SCORE.INTER.SOLV>
10.0681

>  <SCORE.INTER.VDW>
-46.4004

>  <SCORE.INTER.norm>
-2.16666

>  <SCORE.INTRA>
0.438541

>  <SCORE.INTRA.DIHEDRAL>
1.14649

>  <SCORE.INTRA.DIHEDRAL.0>
2.1627

>  <SCORE.INTRA.POLAR>
0

>  <SCORE.INTRA.POLAR.0>
0

>  <SCORE.INTRA.REPUL>
0

>  <SCORE.INTRA.REPUL.0>
0

>  <SCORE.INTRA.SOLV>
0.0159004

>  <SCORE.INTRA.SOLV.lig_0>
-5.95779

>  <SCORE.INTRA.VDW>
-0.142655

>  <SCORE.INTRA.VDW.0>
3.81702

>  <SCORE.INTRA.norm>
0.0175416

>  <SCORE.RESTR>
0

>  <SCORE.RESTR.CAVITY>
0

>  <SCORE.RESTR.norm>
0

>  <SCORE.SYSTEM>
0

>  <SCORE.SYSTEM.CONST>
0

>  <SCORE.SYSTEM.DIHEDRAL>
0

>  <SCORE.SYSTEM.SOLV>
0

>  <SCORE.SYSTEM.norm>
0

>  <SCORE.heavy>
25

>  <SCORE.norm>
-2.14912

>  <RMSD>
0.758

$$$$
1q8n_lig
 OpenBabel11021811403D
libRbt.so/2013.1/901 2013/11/27
 25 27  0  0  0  0  0  0  0  0999 V2000
    0.6734    1.0422   -1.6999 C   0  0  0  0  0  0  0  0  0  0  0  0
    0.6340    2.1761   -2.8738 C   0  0  0  0  0  0  0  0  0  0  0  0
    2.6976   -4.3865   -3.0613 N   0  0  0  0  0  0  0  0  0  0  0  0
    1.1629    3.4153   -2.7341 C   0  0  0  0  0  0  0  0  0  0  0  0
   -1.0328    2.0244    3.9602 N   0  0  0  0  0  0  0  0  0  0  0  0
    1.1007    4.4175   -3.8230 C   0  0  0  0  0  0  0  0  0  0  0  0
    0.5038    4.0998   -4.9946 C   0  0  0  0  0  0  0  0  0  0  0  0
   -0.0607    2.7817   -5.1671 C   0  0  0  0  0  0  0  0  0  0  0  0
    0.0000    1.8875   -4.1772 C   0  0  0  0  0  0  0  0  0  0  0  0
    1.2301   -0.4436   -2.0776 C   0  0  0  0  0  0  0  0  0  0  0  0
    2.1381   -0.6215   -3.0597 C   0  0  0  0  0  0  0  0  0  0  0  0
    2.6574   -1.9705   -3.4181 C   0  0  0  0  0  0  0  0  0  0  0  0
    2.2217   -3.0714   -2.7491 C   0  0  0  0  0  0  0  0  0  0  0  0
    1.2306   -2.8923   -1.6713 C   0  0  0  0  0  0  0  0  0  0  0  0
    0.7723   -1.6711   -1.3628 C   0  0  0  0  0  0  0  0  0  0  0  0
    0.1649    1.3671   -0.1557 C   0  0  0  0  0  0  0  0  0  0  0  0
    0.4456    0.3830    0.9463 C   0  0  0  0  0  0  0  0  0  0  0  0
    0.0719    0.5887    2.2121 C   0  0  0  0  0  0  0  0  0  0  0  0
   -0.6463    1.8092    2.5973 C   0  0  0  0  0  0  0  0  0  0  0  0
   -0.9289    2.7226    1.6452 C   0  0  0  0  0  0  0  0  0  0  0  0
   -0.5125    2.5029    0.2193 C   0  0  0  0  0  0  0  0  0  0  0  0
    2.1178   -5.5641   -2.4906 C   0  0  0  0  0  0  0  0  0  0  0  0
    3.7868   -4.5596   -3.9717 C   0  0  0  0  0  0  0  0  0  0  0  0
   -1.7113    3.2302    4.3399 C   0  0  0  0  0  0  0  0  0  0  0  0
   -0.7585    1.0397    4.9823 C   0  0  0  0  0  0  0  0  0  0  0  0
  1  2  1  0  0  0  0
  1 10  1  0  0  0  0
  1 16  1  0  0  0  0
  2  4  2  0  0  0  0
  2  9  1  0  0  0  0
  4  6  1  0  0  0  0
  6  7  2  0  0  0  0
  7  8  1  0  0  0  0
  8  9  2  0  0  0  0
 10 11  2  0  0  0  0
 10 15  1  0  0  0  0
 11 12  1  0  0  0  0
 12 13  2  0  0  0  0
 13  3  1  0  0  0  0
 13 14  1  0  0  0  0
 14 15  2  0  0  0  0
 16 17  2  0  0  0  0
 16 21  1  0  0  0  0
 17 18  1  0  0  0  0
 18 19  2  0  0  0  0
 19  5  1  0  0  0  0
 19 20  1  0  0  0  0
 20 21  2  0  0  0  0
 22  3  1  0  0  0  0
 23  3  1  0  0  0  0
 24  5  1  0  0  0  0
 25  5  1  0  0  0  0
M  END
>  <CHROM.1>
-129.01756114,28.51777501,-169.01309916,-171.43318280,178.75429059,0.72241313
0.35767449,-1.08993418,2.99175751,-1.19373382,2.27357888

>  <Name>
1q8n_lig

>  <RI>
0

>  <Rbt.Current_Directory>
/home/itssahil/PROJECTS/Mol_Feturizer/New_Systems/rnas/1q8n

>  <Rbt.Executable>
rbdock ($Id: //depot/dev/client3/rdock/2013.1/src/exe/rbdock.cxx#4 $)

>  <Rbt.Library>
libRbt.so (2013.1, Build901 2013/11/27)

>  <Rbt.Parameter_File>
/export/apps/rDock/src/rDock_2013.1_src/data/scripts/dock_solv.prm

>  <Rbt.Receptor>
prm/pocket_docking_4.prm

>  <SCORE>
-51.494

>  <SCORE.INTER>
-51.7267

>  <SCORE.INTER.CONST>
1

>  <SCORE.INTER.POLAR>
0

>  <SCORE.INTER.ROT>
5

>  <SCORE.INTER.SOLV>
10.0357

>  <SCORE.INTER.VDW>
-44.763

>  <SCORE.INTER.norm>
-2.06907

>  <SCORE.INTRA>
0.232705

>  <SCORE.INTRA.DIHEDRAL>
0.287785

>  <SCORE.INTRA.DIHEDRAL.0>
2.1627

>  <SCORE.INTRA.POLAR>
0

>  <SCORE.INTRA.POLAR.0>
0

>  <SCORE.INTRA.REPUL>
0

>  <SCORE.INTRA.REPUL.0>
0

>  <SCORE.INTRA.SOLV>
0.0210595

>  <SCORE.INTRA.SOLV.lig_0>
-5.95779

>  <SCORE.INTRA.VDW>
0.0782823

>  <SCORE.INTRA.VDW.0>
3.81702

>  <SCORE.INTRA.norm>
0.00930819

>  <SCORE.RESTR>
0

>  <SCORE.RESTR.CAVITY>
0

>  <SCORE.RESTR.norm>
0

>  <SCORE.SYSTEM>
0

>  <SCORE.SYSTEM.CONST>
0

>  <SCORE.SYSTEM.DIHEDRAL>
0

>  <SCORE.SYSTEM.SOLV>
0

>  <SCORE.SYSTEM.norm>
0

>  <SCORE.heavy>
25

>  <SCORE.norm>
-2.05976

>  <RMSD>
0.758

$$$$
1q8n_lig
 OpenBabel11021811403D
libRbt.so/2013.1/901 2013/11/27
 25 27  0  0  0  0  0  0  0  0999 V2000
    0.6440    0.8559   -1.5535 C   0  0  0  0  0  0  0  0  0  0  0  0
    0.5849    1.9920   -2.7245 C   0  0  0  0  0  0  0  0  0  0  0  0
    2.5873   -4.5776   -3.0103 N   0  0  0  0  0  0  0  0  0  0  0  0
    1.2119    3.1895   -2.6365 C   0  0  0  0  0  0  0  0  0  0  0  0
   -1.1717    2.2260    3.9908 N   0  0  0  0  0  0  0  0  0  0  0  0
    1.1280    4.1956   -3.7203 C   0  0  0  0  0  0  0  0  0  0  0  0
    0.4106    3.9241   -4.8345 C   0  0  0  0  0  0  0  0  0  0  0  0
   -0.2603    2.6504   -4.9517 C   0  0  0  0  0  0  0  0  0  0  0  0
   -0.1786    1.7523   -3.9669 C   0  0  0  0  0  0  0  0  0  0  0  0
    1.1762   -0.6347   -1.9475 C   0  0  0  0  0  0  0  0  0  0  0  0
    1.0304   -1.6756   -1.1016 C   0  0  0  0  0  0  0  0  0  0  0  0
    1.5101   -3.0431   -1.4447 C   0  0  0  0  0  0  0  0  0  0  0  0
    2.1136   -3.2766   -2.6408 C   0  0  0  0  0  0  0  0  0  0  0  0
    2.2780   -2.1486   -3.5770 C   0  0  0  0  0  0  0  0  0  0  0  0
    1.8421   -0.9236   -3.2515 C   0  0  0  0  0  0  0  0  0  0  0  0
    0.1793    1.1834    0.0039 C   0  0  0  0  0  0  0  0  0  0  0  0
   -0.5797    2.4456    0.3077 C   0  0  0  0  0  0  0  0  0  0  0  0
   -0.9911    2.7637    1.5381 C   0  0  0  0  0  0  0  0  0  0  0  0
   -0.7162    1.8799    2.6770 C   0  0  0  0  0  0  0  0  0  0  0  0
   -0.0327    0.7370    2.4601 C   0  0  0  0  0  0  0  0  0  0  0  0
    0.4335    0.3682    1.0811 C   0  0  0  0  0  0  0  0  0  0  0  0
    2.0741   -5.7745   -2.4166 C   0  0  0  0  0  0  0  0  0  0  0  0
    3.6064   -4.7161   -4.0041 C   0  0  0  0  0  0  0  0  0  0  0  0
   -0.8801    1.3737    5.1074 C   0  0  0  0  0  0  0  0  0  0  0  0
   -1.9263    3.4358    4.2288 C   0  0  0  0  0  0  0  0  0  0  0  0
  1  2  1  0  0  0  0
  1 10  1  0  0  0  0
  1 16  1  0  0  0  0
  2  4  2  0  0  0  0
  2  9  1  0  0  0  0
  4  6  1  0  0  0  0
  6  7  2  0  0  0  0
  7  8  1  0  0  0  0
  8  9  2  0  0  0  0
 10 11  2  0  0  0  0
 10 15  1  0  0  0  0
 11 12  1  0  0  0  0
 12 13  2  0  0  0  0
 13  3  1  0  0  0  0
 13 14  1  0  0  0  0
 14 15  2  0  0  0  0
 16 17  2  0  0  0  0
 16 21  1  0  0  0  0
 17 18  1  0  0  0  0
 18 19  2  0  0  0  0
 19  5  1  0  0  0  0
 19 20  1  0  0  0  0
 20 21  2  0  0  0  0
 22  3  1  0  0  0  0
 23  3  1  0  0  0  0
 24  5  1  0  0  0  0
 25  5  1  0  0  0  0
M  END
>  <CHROM.1>
-124.02723865,-168.14229574,13.01632277,22.48026829,-178.80646059,0.64480216
0.27797483,-1.00467189,0.13262300,1.20185662,-0.89485999

>  <Name>
1q8n_lig

>  <RI>
0

>  <Rbt.Current_Directory>
/home/itssahil/PROJECTS/Mol_Feturizer/New_Systems/rnas/1q8n

>  <Rbt.Executable>
rbdock ($Id: //depot/dev/client3/rdock/2013.1/src/exe/rbdock.cxx#4 $)

>  <Rbt.Library>
libRbt.so (2013.1, Build901 2013/11/27)

>  <Rbt.Parameter_File>
/export/apps/rDock/src/rDock_2013.1_src/data/scripts/dock_solv.prm

>  <Rbt.Receptor>
prm/blind_docking_20.prm

>  <SCORE>
-53.586

>  <SCORE.INTER>
-54.2196

>  <SCORE.INTER.CONST>
1

>  <SCORE.INTER.POLAR>
0

>  <SCORE.INTER.ROT>
5

>  <SCORE.INTER.SOLV>
10.1237

>  <SCORE.INTER.VDW>
-46.4543

>  <SCORE.INTER.norm>
-2.16878

>  <SCORE.INTRA>
0.633612

>  <SCORE.INTRA.DIHEDRAL>
1.87457

>  <SCORE.INTRA.DIHEDRAL.0>
2.1627

>  <SCORE.INTRA.POLAR>
0

>  <SCORE.INTRA.POLAR.0>
0

>  <SCORE.INTRA.REPUL>
0

>  <SCORE.INTRA.REPUL.0>
0

>  <SCORE.INTRA.SOLV>
0.0216036

>  <SCORE.INTRA.SOLV.lig_0>
-5.95779

>  <SCORE.INTRA.VDW>
-0.314477

>  <SCORE.INTRA.VDW.0>
3.81702

>  <SCORE.INTRA.norm>
0.0253445

>  <SCORE.RESTR>
0

>  <SCORE.RESTR.CAVITY>
0

>  <SCORE.RESTR.norm>
0

>  <SCORE.SYSTEM>
0

>  <SCORE.SYSTEM.CONST>
0

>  <SCORE.SYSTEM.DIHEDRAL>
0

>  <SCORE.SYSTEM.SOLV>
0

>  <SCORE.SYSTEM.norm>
0

>  <SCORE.heavy>
25

>  <SCORE.norm>
-2.14344

>  <RMSD>
0.759

$$$$
1q8n_lig
 OpenBabel11021811403D
libRbt.so/2013.1/901 2013/11/27
 25 27  0  0  0  0  0  0  0  0999 V2000
    0.6595    0.8434   -1.5808 C   0  0  0  0  0  0  0  0  0  0  0  0
    0.6016    1.9834   -2.7481 C   0  0  0  0  0  0  0  0  0  0  0  0
    2.5975   -4.5975   -3.0172 N   0  0  0  0  0  0  0  0  0  0  0  0
    1.2165    3.1863   -2.6492 C   0  0  0  0  0  0  0  0  0  0  0  0
   -1.1552    2.1982    3.9675 N   0  0  0  0  0  0  0  0  0  0  0  0
    1.1342    4.1958   -3.7299 C   0  0  0  0  0  0  0  0  0  0  0  0
    0.4305    3.9220   -4.8523 C   0  0  0  0  0  0  0  0  0  0  0  0
   -0.2273    2.6427   -4.9811 C   0  0  0  0  0  0  0  0  0  0  0  0
   -0.1473    1.7415   -3.9990 C   0  0  0  0  0  0  0  0  0  0  0  0
    1.1909   -0.6462   -1.9796 C   0  0  0  0  0  0  0  0  0  0  0  0
    1.7643   -0.8868   -3.1770 C   0  0  0  0  0  0  0  0  0  0  0  0
    2.2552   -2.2402   -3.5580 C   0  0  0  0  0  0  0  0  0  0  0  0
    2.1363   -3.2806   -2.6904 C   0  0  0  0  0  0  0  0  0  0  0  0
    1.5134   -3.0323   -1.3765 C   0  0  0  0  0  0  0  0  0  0  0  0
    1.0753   -1.8082   -1.0504 C   0  0  0  0  0  0  0  0  0  0  0  0
    0.1943    1.1659   -0.0225 C   0  0  0  0  0  0  0  0  0  0  0  0
   -0.5477    2.4366    0.2881 C   0  0  0  0  0  0  0  0  0  0  0  0
   -0.9587    2.7514    1.5195 C   0  0  0  0  0  0  0  0  0  0  0  0
   -0.7002    1.8554    2.6527 C   0  0  0  0  0  0  0  0  0  0  0  0
   -0.0324    0.7044    2.4295 C   0  0  0  0  0  0  0  0  0  0  0  0
    0.4331    0.3392    1.0494 C   0  0  0  0  0  0  0  0  0  0  0  0
    3.5894   -4.8320   -4.0220 C   0  0  0  0  0  0  0  0  0  0  0  0
    2.0675   -5.7354   -2.3321 C   0  0  0  0  0  0  0  0  0  0  0  0
   -0.8751    1.3361    5.0796 C   0  0  0  0  0  0  0  0  0  0  0  0
   -1.8976    3.4143    4.2112 C   0  0  0  0  0  0  0  0  0  0  0  0
  1  2  1  0  0  0  0
  1 10  1  0  0  0  0
  1 16  1  0  0  0  0
  2  4  2  0  0  0  0
  2  9  1  0  0  0  0
  4  6  1  0  0  0  0
  6  7  2  0  0  0  0
  7  8  1  0  0  0  0
  8  9  2  0  0  0  0
 10 11  2  0  0  0  0
 10 15  1  0  0  0  0
 11 12  1  0  0  0  0
 12 13  2  0  0  0  0
 13  3  1  0  0  0  0
 13 14  1  0  0  0  0
 14 15  2  0  0  0  0
 16 17  2  0  0  0  0
 16 21  1  0  0  0  0
 17 18  1  0  0  0  0
 18 19  2  0  0  0  0
 19  5  1  0  0  0  0
 19 20  1  0  0  0  0
 20 21  2  0  0  0  0
 22  3  1  0  0  0  0
 23  3  1  0  0  0  0
 24  5  1  0  0  0  0
 25  5  1  0  0  0  0
M  END
>  <CHROM.1>
-124.81431544,10.24168104,12.18043425,21.90587392,-178.56823899,0.65430989
0.25571958,-1.01130459,0.12280348,1.20348330,-0.89137016

>  <Name>
1q8n_lig

>  <RI>
0

>  <Rbt.Current_Directory>
/home/itssahil/PROJECTS/Mol_Feturizer/New_Systems/rnas/1q8n

>  <Rbt.Executable>
rbdock ($Id: //depot/dev/client3/rdock/2013.1/src/exe/rbdock.cxx#4 $)

>  <Rbt.Library>
libRbt.so (2013.1, Build901 2013/11/27)

>  <Rbt.Parameter_File>
/export/apps/rDock/src/rDock_2013.1_src/data/scripts/dock_solv.prm

>  <Rbt.Receptor>
prm/pocket_docking_5.prm

>  <SCORE>
-53.999

>  <SCORE.INTER>
-54.5941

>  <SCORE.INTER.CONST>
1

>  <SCORE.INTER.POLAR>
0

>  <SCORE.INTER.ROT>
5

>  <SCORE.INTER.SOLV>
10.0405

>  <SCORE.INTER.VDW>
-46.6762

>  <SCORE.INTER.norm>
-2.18376

>  <SCORE.INTRA>
0.595091

>  <SCORE.INTRA.DIHEDRAL>
1.78625

>  <SCORE.INTRA.DIHEDRAL.0>
2.1627

>  <SCORE.INTRA.POLAR>
0

>  <SCORE.INTRA.POLAR.0>
0

>  <SCORE.INTRA.REPUL>
0

>  <SCORE.INTRA.REPUL.0>
0

>  <SCORE.INTRA.SOLV>
0.0245932

>  <SCORE.INTRA.SOLV.lig_0>
-5.95779

>  <SCORE.INTRA.VDW>
-0.310332

>  <SCORE.INTRA.VDW.0>
3.81702

>  <SCORE.INTRA.norm>
0.0238036

>  <SCORE.RESTR>
0

>  <SCORE.RESTR.CAVITY>
0

>  <SCORE.RESTR.norm>
0

>  <SCORE.SYSTEM>
0

>  <SCORE.SYSTEM.CONST>
0

>  <SCORE.SYSTEM.DIHEDRAL>
0

>  <SCORE.SYSTEM.SOLV>
0

>  <SCORE.SYSTEM.norm>
0

>  <SCORE.heavy>
25

>  <SCORE.norm>
-2.15996

>  <RMSD>
0.760

$$$$
1q8n_lig
 OpenBabel11021811403D
libRbt.so/2013.1/901 2013/11/27
 25 27  0  0  0  0  0  0  0  0999 V2000
    0.5947    0.7862   -1.5979 C   0  0  0  0  0  0  0  0  0  0  0  0
    0.4996    1.9026   -2.7853 C   0  0  0  0  0  0  0  0  0  0  0  0
    2.5802   -4.6452   -3.0050 N   0  0  0  0  0  0  0  0  0  0  0  0
   -0.2012    1.7186   -3.9298 C   0  0  0  0  0  0  0  0  0  0  0  0
   -1.1339    2.2236    3.9572 N   0  0  0  0  0  0  0  0  0  0  0  0
   -0.2571    2.7558   -4.9858 C   0  0  0  0  0  0  0  0  0  0  0  0
    0.4037    3.9238   -4.8153 C   0  0  0  0  0  0  0  0  0  0  0  0
    1.1516    4.1433   -3.5994 C   0  0  0  0  0  0  0  0  0  0  0  0
    1.1958    3.1997   -2.6556 C   0  0  0  0  0  0  0  0  0  0  0  0
    1.1384   -0.7038   -1.9783 C   0  0  0  0  0  0  0  0  0  0  0  0
    1.0015   -1.7378   -1.1225 C   0  0  0  0  0  0  0  0  0  0  0  0
    1.4918   -3.1046   -1.4531 C   0  0  0  0  0  0  0  0  0  0  0  0
    2.0963   -3.3446   -2.6474 C   0  0  0  0  0  0  0  0  0  0  0  0
    2.2511   -2.2241   -3.5943 C   0  0  0  0  0  0  0  0  0  0  0  0
    1.8057   -0.9997   -3.2800 C   0  0  0  0  0  0  0  0  0  0  0  0
    0.1547    1.1327   -0.0374 C   0  0  0  0  0  0  0  0  0  0  0  0
   -0.6025    2.3969    0.2624 C   0  0  0  0  0  0  0  0  0  0  0  0
   -0.9947    2.7300    1.4951 C   0  0  0  0  0  0  0  0  0  0  0  0
   -0.6989    1.8616    2.6407 C   0  0  0  0  0  0  0  0  0  0  0  0
   -0.0162    0.7176    2.4274 C   0  0  0  0  0  0  0  0  0  0  0  0
    0.4284    0.3321    1.0458 C   0  0  0  0  0  0  0  0  0  0  0  0
    2.0441   -5.8432   -2.4341 C   0  0  0  0  0  0  0  0  0  0  0  0
    3.6332   -4.7821   -3.9630 C   0  0  0  0  0  0  0  0  0  0  0  0
   -0.8212    1.3868    5.0799 C   0  0  0  0  0  0  0  0  0  0  0  0
   -1.8882    3.4342    4.1917 C   0  0  0  0  0  0  0  0  0  0  0  0
  1  2  1  0  0  0  0
  1 10  1  0  0  0  0
  1 16  1  0  0  0  0
  2  4  2  0  0  0  0
  2  9  1  0  0  0  0
  4  6  1  0  0  0  0
  6  7  2  0  0  0  0
  7  8  1  0  0  0  0
  8  9  2  0  0  0  0
 10 11  2  0  0  0  0
 10 15  1  0  0  0  0
 11 12  1  0  0  0  0
 12 13  2  0  0  0  0
 13  3  1  0  0  0  0
 13 14  1  0  0  0  0
 14 15  2  0  0  0  0
 16 17  2  0  0  0  0
 16 21  1  0  0  0  0
 17 18  1  0  0  0  0
 18 19  2  0  0  0  0
 19  5  1  0  0  0  0
 19 20  1  0  0  0  0
 20 21  2  0  0  0  0
 22  3  1  0  0  0  0
 23  3  1  0  0  0  0
 24  5  1  0  0  0  0
 25  5  1  0  0  0  0
M  END
>  <CHROM.1>
56.00665323,-167.02656398,12.39774262,24.73823622,-178.76978828,0.63737862
0.24078293,-1.02011077,0.11991713,1.20629020,-0.90238692

>  <Name>
1q8n_lig

>  <RI>
0

>  <Rbt.Current_Directory>
/home/itssahil/PROJECTS/Mol_Feturizer/New_Systems/rnas/1q8n

>  <Rbt.Executable>
rbdock ($Id: //depot/dev/client3/rdock/2013.1/src/exe/rbdock.cxx#4 $)

>  <Rbt.Library>
libRbt.so (2013.1, Build901 2013/11/27)

>  <Rbt.Parameter_File>
/export/apps/rDock/src/rDock_2013.1_src/data/scripts/dock_solv.prm

>  <Rbt.Receptor>
prm/pocket_docking_4.prm

>  <SCORE>
-52.8206

>  <SCORE.INTER>
-53.4991

>  <SCORE.INTER.CONST>
1

>  <SCORE.INTER.POLAR>
0

>  <SCORE.INTER.ROT>
5

>  <SCORE.INTER.SOLV>
10.1918

>  <SCORE.INTER.VDW>
-45.9966

>  <SCORE.INTER.norm>
-2.13996

>  <SCORE.INTRA>
0.678518

>  <SCORE.INTRA.DIHEDRAL>
2.24515

>  <SCORE.INTRA.DIHEDRAL.0>
2.1627

>  <SCORE.INTRA.POLAR>
0

>  <SCORE.INTRA.POLAR.0>
0

>  <SCORE.INTRA.REPUL>
0

>  <SCORE.INTRA.REPUL.0>
0

>  <SCORE.INTRA.SOLV>
0.0207557

>  <SCORE.INTRA.SOLV.lig_0>
-5.95779

>  <SCORE.INTRA.VDW>
-0.454436

>  <SCORE.INTRA.VDW.0>
3.81702

>  <SCORE.INTRA.norm>
0.0271407

>  <SCORE.RESTR>
0

>  <SCORE.RESTR.CAVITY>
0

>  <SCORE.RESTR.norm>
0

>  <SCORE.SYSTEM>
0

>  <SCORE.SYSTEM.CONST>
0

>  <SCORE.SYSTEM.DIHEDRAL>
0

>  <SCORE.SYSTEM.SOLV>
0

>  <SCORE.SYSTEM.norm>
0

>  <SCORE.heavy>
25

>  <SCORE.norm>
-2.11282

>  <RMSD>
0.762

$$$$
1q8n_lig
 OpenBabel11021811403D
libRbt.so/2013.1/901 2013/11/27
 25 27  0  0  0  0  0  0  0  0999 V2000
    0.5043    0.8583   -1.5475 C   0  0  0  0  0  0  0  0  0  0  0  0
    0.5247    2.0053   -2.7092 C   0  0  0  0  0  0  0  0  0  0  0  0
   -1.3179    2.3771    3.9110 N   0  0  0  0  0  0  0  0  0  0  0  0
    0.0796    1.7984   -3.9717 C   0  0  0  0  0  0  0  0  0  0  0  0
    2.1278   -4.8424   -2.4304 N   0  0  0  0  0  0  0  0  0  0  0  0
    0.1212    2.8653   -4.9983 C   0  0  0  0  0  0  0  0  0  0  0  0
    0.6130    4.0846   -4.6799 C   0  0  0  0  0  0  0  0  0  0  0  0
    1.0867    4.3285   -3.3375 C   0  0  0  0  0  0  0  0  0  0  0  0
    1.0456    3.3579   -2.4214 C   0  0  0  0  0  0  0  0  0  0  0  0
    0.0022    1.2787   -0.0537 C   0  0  0  0  0  0  0  0  0  0  0  0
   -1.0040    2.1599    0.1237 C   0  0  0  0  0  0  0  0  0  0  0  0
   -1.4754    2.5553    1.4800 C   0  0  0  0  0  0  0  0  0  0  0  0
   -0.8930    2.0249    2.5885 C   0  0  0  0  0  0  0  0  0  0  0  0
    0.2071    1.0583    2.4102 C   0  0  0  0  0  0  0  0  0  0  0  0
    0.6202    0.7149    1.1822 C   0  0  0  0  0  0  0  0  0  0  0  0
    0.9781   -0.7009   -1.8526 C   0  0  0  0  0  0  0  0  0  0  0  0
    0.9258   -1.7265   -0.7539 C   0  0  0  0  0  0  0  0  0  0  0  0
    1.2839   -3.0004   -0.9362 C   0  0  0  0  0  0  0  0  0  0  0  0
    1.7565   -3.4710   -2.2435 C   0  0  0  0  0  0  0  0  0  0  0  0
    1.8285   -2.5894   -3.2623 C   0  0  0  0  0  0  0  0  0  0  0  0
    1.4272   -1.1553   -3.0697 C   0  0  0  0  0  0  0  0  0  0  0  0
   -2.0588    3.5711    4.1826 C   0  0  0  0  0  0  0  0  0  0  0  0
   -1.0067    1.5253    5.0168 C   0  0  0  0  0  0  0  0  0  0  0  0
    2.9105   -5.2333   -3.5675 C   0  0  0  0  0  0  0  0  0  0  0  0
    1.7337   -5.8620   -1.4846 C   0  0  0  0  0  0  0  0  0  0  0  0
  1  2  1  0  0  0  0
  1 10  1  0  0  0  0
  1 16  1  0  0  0  0
  2  4  2  0  0  0  0
  2  9  1  0  0  0  0
  4  6  1  0  0  0  0
  6  7  2  0  0  0  0
  7  8  1  0  0  0  0
  8  9  2  0  0  0  0
 10 11  2  0  0  0  0
 10 15  1  0  0  0  0
 11 12  1  0  0  0  0
 12 13  2  0  0  0  0
 13  3  1  0  0  0  0
 13 14  1  0  0  0  0
 14 15  2  0  0  0  0
 16 17  2  0  0  0  0
 16 21  1  0  0  0  0
 17 18  1  0  0  0  0
 18 19  2  0  0  0  0
 19  5  1  0  0  0  0
 19 20  1  0  0  0  0
 20 21  2  0  0  0  0
 22  3  1  0  0  0  0
 23  3  1  0  0  0  0
 24  5  1  0  0  0  0
 25  5  1  0  0  0  0
M  END
>  <CHROM.1>
-136.22055051,36.92310547,-179.25345119,-19.82594159,-163.41512775,0.47837978
0.26704124,-0.84067542,-0.10646920,1.22749145,-0.77107650

>  <Name>
1q8n_lig

>  <RI>
0

>  <Rbt.Current_Directory>
/home/itssahil/PROJECTS/Mol_Feturizer/New_Systems/rnas/1q8n

>  <Rbt.Executable>
rbdock ($Id: //depot/dev/client3/rdock/2013.1/src/exe/rbdock.cxx#4 $)

>  <Rbt.Library>
libRbt.so (2013.1, Build901 2013/11/27)

>  <Rbt.Parameter_File>
/export/apps/rDock/src/rDock_2013.1_src/data/scripts/dock_solv.prm

>  <Rbt.Receptor>
prm/pocket_docking_3.prm

>  <SCORE>
-48.252

>  <SCORE.INTER>
-48.7711

>  <SCORE.INTER.CONST>
1

>  <SCORE.INTER.POLAR>
0

>  <SCORE.INTER.ROT>
5

>  <SCORE.INTER.SOLV>
10.7259

>  <SCORE.INTER.VDW>
-43.0227

>  <SCORE.INTER.norm>
-1.95084

>  <SCORE.INTRA>
0.519157

>  <SCORE.INTRA.DIHEDRAL>
2.51024

>  <SCORE.INTRA.DIHEDRAL.0>
2.1627

>  <SCORE.INTRA.POLAR>
0

>  <SCORE.INTRA.POLAR.0>
0

>  <SCORE.INTRA.REPUL>
0

>  <SCORE.INTRA.REPUL.0>
0

>  <SCORE.INTRA.SOLV>
0.0231441

>  <SCORE.INTRA.SOLV.lig_0>
-5.95779

>  <SCORE.INTRA.VDW>
-0.747535

>  <SCORE.INTRA.VDW.0>
3.81702

>  <SCORE.INTRA.norm>
0.0207663

>  <SCORE.RESTR>
0

>  <SCORE.RESTR.CAVITY>
0

>  <SCORE.RESTR.norm>
0

>  <SCORE.SYSTEM>
0

>  <SCORE.SYSTEM.CONST>
0

>  <SCORE.SYSTEM.DIHEDRAL>
0

>  <SCORE.SYSTEM.SOLV>
0

>  <SCORE.SYSTEM.norm>
0

>  <SCORE.heavy>
25

>  <SCORE.norm>
-1.93008

>  <RMSD>
0.764

$$$$
1q8n_lig
 OpenBabel11021811403D
libRbt.so/2013.1/901 2013/11/27
 25 27  0  0  0  0  0  0  0  0999 V2000
    0.6451    0.8465   -1.5461 C   0  0  0  0  0  0  0  0  0  0  0  0
    0.5760    1.9808   -2.7182 C   0  0  0  0  0  0  0  0  0  0  0  0
    2.6160   -4.5772   -3.0023 N   0  0  0  0  0  0  0  0  0  0  0  0
    1.2060    3.1773   -2.6386 C   0  0  0  0  0  0  0  0  0  0  0  0
   -1.1656    2.2100    4.0015 N   0  0  0  0  0  0  0  0  0  0  0  0
    1.1128    4.1819   -3.7230 C   0  0  0  0  0  0  0  0  0  0  0  0
    0.3834    3.9100   -4.8294 C   0  0  0  0  0  0  0  0  0  0  0  0
   -0.2909    2.6374   -4.9377 C   0  0  0  0  0  0  0  0  0  0  0  0
   -0.2008    1.7407   -3.9523 C   0  0  0  0  0  0  0  0  0  0  0  0
    1.1847   -0.6414   -1.9400 C   0  0  0  0  0  0  0  0  0  0  0  0
    1.0214   -1.6884   -1.1048 C   0  0  0  0  0  0  0  0  0  0  0  0
    1.5076   -3.0536   -1.4479 C   0  0  0  0  0  0  0  0  0  0  0  0
    2.1352   -3.2787   -2.6331 C   0  0  0  0  0  0  0  0  0  0  0  0
    2.3190   -2.1440   -3.5576 C   0  0  0  0  0  0  0  0  0  0  0  0
    1.8769   -0.9212   -3.2322 C   0  0  0  0  0  0  0  0  0  0  0  0
    0.1830    1.1731    0.0123 C   0  0  0  0  0  0  0  0  0  0  0  0
   -0.6009    2.4206    0.3136 C   0  0  0  0  0  0  0  0  0  0  0  0
   -1.0115    2.7371    1.5447 C   0  0  0  0  0  0  0  0  0  0  0  0
   -0.7108    1.8660    2.6869 C   0  0  0  0  0  0  0  0  0  0  0  0
   -0.0045    0.7366    2.4722 C   0  0  0  0  0  0  0  0  0  0  0  0
    0.4610    0.3698    1.0925 C   0  0  0  0  0  0  0  0  0  0  0  0
    3.6365   -4.7618   -3.9888 C   0  0  0  0  0  0  0  0  0  0  0  0
    2.0775   -5.7469   -2.3802 C   0  0  0  0  0  0  0  0  0  0  0  0
   -1.9054    3.4197    4.2194 C   0  0  0  0  0  0  0  0  0  0  0  0
   -0.9002    1.3534    5.1352 C   0  0  0  0  0  0  0  0  0  0  0  0
  1  2  1  0  0  0  0
  1 10  1  0  0  0  0
  1 16  1  0  0  0  0
  2  4  2  0  0  0  0
  2  9  1  0  0  0  0
  4  6  1  0  0  0  0
  6  7  2  0  0  0  0
  7  8  1  0  0  0  0
  8  9  2  0  0  0  0
 10 11  2  0  0  0  0
 10 15  1  0  0  0  0
 11 12  1  0  0  0  0
 12 13  2  0  0  0  0
 13  3  1  0  0  0  0
 13 14  1  0  0  0  0
 14 15  2  0  0  0  0
 16 17  2  0  0  0  0
 16 21  1  0  0  0  0
 17 18  1  0  0  0  0
 18 19  2  0  0  0  0
 19  5  1  0  0  0  0
 19 20  1  0  0  0  0
 20 21  2  0  0  0  0
 22  3  1  0  0  0  0
 23  3  1  0  0  0  0
 24  5  1  0  0  0  0
 25  5  1  0  0  0  0
M  END
>  <CHROM.1>
-123.41973434,-166.68254067,13.96175051,-158.72647015,-0.83205900,0.64808587
0.26767614,-0.99512408,0.14457482,1.19865580,-0.90734493

>  <Name>
1q8n_lig

>  <RI>
0

>  <Rbt.Current_Directory>
/home/itssahil/PROJECTS/Mol_Feturizer/New_Systems/rnas/1q8n

>  <Rbt.Executable>
rbdock ($Id: //depot/dev/client3/rdock/2013.1/src/exe/rbdock.cxx#4 $)

>  <Rbt.Library>
libRbt.so (2013.1, Build901 2013/11/27)

>  <Rbt.Parameter_File>
/export/apps/rDock/src/rDock_2013.1_src/data/scripts/dock_solv.prm

>  <Rbt.Receptor>
prm/pocket_docking_5.prm

>  <SCORE>
-53.7343

>  <SCORE.INTER>
-54.2548

>  <SCORE.INTER.CONST>
1

>  <SCORE.INTER.POLAR>
0

>  <SCORE.INTER.ROT>
5

>  <SCORE.INTER.SOLV>
10.0835

>  <SCORE.INTER.VDW>
-46.4644

>  <SCORE.INTER.norm>
-2.17019

>  <SCORE.INTRA>
0.520531

>  <SCORE.INTRA.DIHEDRAL>
1.68541

>  <SCORE.INTRA.DIHEDRAL.0>
2.1627

>  <SCORE.INTRA.POLAR>
0

>  <SCORE.INTRA.POLAR.0>
0

>  <SCORE.INTRA.REPUL>
0

>  <SCORE.INTRA.REPUL.0>
0

>  <SCORE.INTRA.SOLV>
0.0192823

>  <SCORE.INTRA.SOLV.lig_0>
-5.95779

>  <SCORE.INTRA.VDW>
-0.331814

>  <SCORE.INTRA.VDW.0>
3.81702

>  <SCORE.INTRA.norm>
0.0208212

>  <SCORE.RESTR>
0

>  <SCORE.RESTR.CAVITY>
0

>  <SCORE.RESTR.norm>
0

>  <SCORE.SYSTEM>
0

>  <SCORE.SYSTEM.CONST>
0

>  <SCORE.SYSTEM.DIHEDRAL>
0

>  <SCORE.SYSTEM.SOLV>
0

>  <SCORE.SYSTEM.norm>
0

>  <SCORE.heavy>
25

>  <SCORE.norm>
-2.14937

>  <RMSD>
0.765

$$$$
1q8n_lig
 OpenBabel11021811403D
libRbt.so/2013.1/901 2013/11/27
 25 27  0  0  0  0  0  0  0  0999 V2000
    0.5906    0.8516   -1.8143 C   0  0  0  0  0  0  0  0  0  0  0  0
    0.5052    1.9579   -3.0120 C   0  0  0  0  0  0  0  0  0  0  0  0
    2.6950   -4.5661   -3.0958 N   0  0  0  0  0  0  0  0  0  0  0  0
   -0.2062    1.7741   -4.1500 C   0  0  0  0  0  0  0  0  0  0  0  0
   -0.9852    1.9594    3.8604 N   0  0  0  0  0  0  0  0  0  0  0  0
   -0.2528    2.8018   -5.2156 C   0  0  0  0  0  0  0  0  0  0  0  0
    0.4277    3.9607   -5.0609 C   0  0  0  0  0  0  0  0  0  0  0  0
    1.1871    4.1799   -3.8522 C   0  0  0  0  0  0  0  0  0  0  0  0
    1.2228    3.2449   -2.8995 C   0  0  0  0  0  0  0  0  0  0  0  0
    1.1681   -0.6316   -2.1706 C   0  0  0  0  0  0  0  0  0  0  0  0
    1.8500   -0.8609   -3.3120 C   0  0  0  0  0  0  0  0  0  0  0  0
    2.3844   -2.2084   -3.6536 C   0  0  0  0  0  0  0  0  0  0  0  0
    2.1954   -3.2546   -2.8057 C   0  0  0  0  0  0  0  0  0  0  0  0
    1.4536   -3.0186   -1.5527 C   0  0  0  0  0  0  0  0  0  0  0  0
    0.9778   -1.7998   -1.2616 C   0  0  0  0  0  0  0  0  0  0  0  0
    0.1076    1.2016   -0.2674 C   0  0  0  0  0  0  0  0  0  0  0  0
    0.6259    0.3807    0.8812 C   0  0  0  0  0  0  0  0  0  0  0  0
    0.2839    0.6163    2.1508 C   0  0  0  0  0  0  0  0  0  0  0  0
   -0.6337    1.7090    2.4940 C   0  0  0  0  0  0  0  0  0  0  0  0
   -1.1328    2.4726    1.4998 C   0  0  0  0  0  0  0  0  0  0  0  0
   -0.7543    2.2181    0.0691 C   0  0  0  0  0  0  0  0  0  0  0  0
    3.7305   -4.7936   -4.0573 C   0  0  0  0  0  0  0  0  0  0  0  0
    2.1607   -5.7054   -2.4164 C   0  0  0  0  0  0  0  0  0  0  0  0
   -0.5666    1.0568    4.8940 C   0  0  0  0  0  0  0  0  0  0  0  0
   -1.7595    3.1211    4.2351 C   0  0  0  0  0  0  0  0  0  0  0  0
  1  2  1  0  0  0  0
  1 10  1  0  0  0  0
  1 16  1  0  0  0  0
  2  4  2  0  0  0  0
  2  9  1  0  0  0  0
  4  6  1  0  0  0  0
  6  7  2  0  0  0  0
  7  8  1  0  0  0  0
  8  9  2  0  0  0  0
 10 11  2  0  0  0  0
 10 15  1  0  0  0  0
 11 12  1  0  0  0  0
 12 13  2  0  0  0  0
 13  3  1  0  0  0  0
 13 14  1  0  0  0  0
 14 15  2  0  0  0  0
 16 17  2  0  0  0  0
 16 21  1  0  0  0  0
 17 18  1  0  0  0  0
 18 19  2  0  0  0  0
 19  5  1  0  0  0  0
 19 20  1  0  0  0  0
 20 21  2  0  0  0  0
 22  3  1  0  0  0  0
 23  3  1  0  0  0  0
 24  5  1  0  0  0  0
 25  5  1  0  0  0  0
M  END
>  <CHROM.1>
58.57620147,15.65700346,-158.51379883,18.68354640,-7.02074259,0.69720273
0.21331566,-1.16601016,0.19802275,1.19474879,-0.94546114

>  <Name>
1q8n_lig

>  <RI>
0

>  <Rbt.Current_Directory>
/home/itssahil/PROJECTS/Mol_Feturizer/New_Systems/rnas/1q8n

>  <Rbt.Executable>
rbdock ($Id: //depot/dev/client3/rdock/2013.1/src/exe/rbdock.cxx#4 $)

>  <Rbt.Library>
libRbt.so (2013.1, Build901 2013/11/27)

>  <Rbt.Parameter_File>
/export/apps/rDock/src/rDock_2013.1_src/data/scripts/dock_solv.prm

>  <Rbt.Receptor>
prm/pocket_docking_2.prm

>  <SCORE>
-52.3637

>  <SCORE.INTER>
-53.0093

>  <SCORE.INTER.CONST>
1

>  <SCORE.INTER.POLAR>
0

>  <SCORE.INTER.ROT>
5

>  <SCORE.INTER.SOLV>
10.0974

>  <SCORE.INTER.VDW>
-45.6387

>  <SCORE.INTER.norm>
-2.12037

>  <SCORE.INTRA>
0.403887

>  <SCORE.INTRA.DIHEDRAL>
1.50389

>  <SCORE.INTRA.DIHEDRAL.0>
2.1627

>  <SCORE.INTRA.POLAR>
0

>  <SCORE.INTRA.POLAR.0>
0

>  <SCORE.INTRA.REPUL>
0

>  <SCORE.INTRA.REPUL.0>
0

>  <SCORE.INTRA.SOLV>
0.0170766

>  <SCORE.INTRA.SOLV.lig_0>
-5.95779

>  <SCORE.INTRA.VDW>
-0.356595

>  <SCORE.INTRA.VDW.0>
3.81702

>  <SCORE.INTRA.norm>
0.0161555

>  <SCORE.RESTR>
0.241691

>  <SCORE.RESTR.CAVITY>
0.241691

>  <SCORE.RESTR.norm>
0.00966763

>  <SCORE.SYSTEM>
0

>  <SCORE.SYSTEM.CONST>
0

>  <SCORE.SYSTEM.DIHEDRAL>
0

>  <SCORE.SYSTEM.SOLV>
0

>  <SCORE.SYSTEM.norm>
0

>  <SCORE.heavy>
25

>  <SCORE.norm>
-2.09455

>  <RMSD>
0.766

$$$$
1q8n_lig
 OpenBabel11021811403D
libRbt.so/2013.1/901 2013/11/27
 25 27  0  0  0  0  0  0  0  0999 V2000
    0.6299    0.8118   -1.5572 C   0  0  0  0  0  0  0  0  0  0  0  0
    0.5708    1.9440   -2.7320 C   0  0  0  0  0  0  0  0  0  0  0  0
    2.5408   -4.6460   -2.9654 N   0  0  0  0  0  0  0  0  0  0  0  0
    1.2300    3.1255   -2.6652 C   0  0  0  0  0  0  0  0  0  0  0  0
   -1.1636    2.2033    3.9889 N   0  0  0  0  0  0  0  0  0  0  0  0
    1.1450    4.1288   -3.7515 C   0  0  0  0  0  0  0  0  0  0  0  0
    0.3936    3.8710   -4.8464 C   0  0  0  0  0  0  0  0  0  0  0  0
   -0.3122    2.6144   -4.9409 C   0  0  0  0  0  0  0  0  0  0  0  0
   -0.2291    1.7187   -3.9540 C   0  0  0  0  0  0  0  0  0  0  0  0
    1.1538   -0.6825   -1.9483 C   0  0  0  0  0  0  0  0  0  0  0  0
    1.7127   -0.9354   -3.1500 C   0  0  0  0  0  0  0  0  0  0  0  0
    2.1965   -2.2932   -3.5242 C   0  0  0  0  0  0  0  0  0  0  0  0
    2.0859   -3.3252   -2.6455 C   0  0  0  0  0  0  0  0  0  0  0  0
    1.4789   -3.0635   -1.3268 C   0  0  0  0  0  0  0  0  0  0  0  0
    1.0470   -1.8356   -1.0070 C   0  0  0  0  0  0  0  0  0  0  0  0
    0.1732    1.1467    0.0010 C   0  0  0  0  0  0  0  0  0  0  0  0
   -0.6213    2.3890    0.2963 C   0  0  0  0  0  0  0  0  0  0  0  0
   -1.0282    2.7115    1.5271 C   0  0  0  0  0  0  0  0  0  0  0  0
   -0.7127    1.8529    2.6747 C   0  0  0  0  0  0  0  0  0  0  0  0
    0.0035    0.7288    2.4654 C   0  0  0  0  0  0  0  0  0  0  0  0
    0.4650    0.3551    1.0862 C   0  0  0  0  0  0  0  0  0  0  0  0
    2.0274   -5.8103   -2.3101 C   0  0  0  0  0  0  0  0  0  0  0  0
    3.5401   -4.8385   -3.9701 C   0  0  0  0  0  0  0  0  0  0  0  0
   -1.9093    3.4103    4.2020 C   0  0  0  0  0  0  0  0  0  0  0  0
   -0.8883    1.3560    5.1273 C   0  0  0  0  0  0  0  0  0  0  0  0
  1  2  1  0  0  0  0
  1 10  1  0  0  0  0
  1 16  1  0  0  0  0
  2  4  2  0  0  0  0
  2  9  1  0  0  0  0
  4  6  1  0  0  0  0
  6  7  2  0  0  0  0
  7  8  1  0  0  0  0
  8  9  2  0  0  0  0
 10 11  2  0  0  0  0
 10 15  1  0  0  0  0
 11 12  1  0  0  0  0
 12 13  2  0  0  0  0
 13  3  1  0  0  0  0
 13 14  1  0  0  0  0
 14 15  2  0  0  0  0
 16 17  2  0  0  0  0
 16 21  1  0  0  0  0
 17 18  1  0  0  0  0
 18 19  2  0  0  0  0
 19  5  1  0  0  0  0
 19 20  1  0  0  0  0
 20 21  2  0  0  0  0
 22  3  1  0  0  0  0
 23  3  1  0  0  0  0
 24  5  1  0  0  0  0
 25  5  1  0  0  0  0
M  END
>  <CHROM.1>
-122.34375436,9.79863014,15.17953412,-156.86983376,-1.08984436,0.62281424
0.22727109,-0.98549151,0.13092406,1.20667624,-0.90473512

>  <Name>
1q8n_lig

>  <RI>
0

>  <Rbt.Current_Directory>
/home/itssahil/PROJECTS/Mol_Feturizer/New_Systems/rnas/1q8n

>  <Rbt.Executable>
rbdock ($Id: //depot/dev/client3/rdock/2013.1/src/exe/rbdock.cxx#4 $)

>  <Rbt.Library>
libRbt.so (2013.1, Build901 2013/11/27)

>  <Rbt.Parameter_File>
/export/apps/rDock/src/rDock_2013.1_src/data/scripts/dock_solv.prm

>  <Rbt.Receptor>
prm/blind_docking_80.prm

>  <SCORE>
-54.0036

>  <SCORE.INTER>
-54.5442

>  <SCORE.INTER.CONST>
1

>  <SCORE.INTER.POLAR>
0

>  <SCORE.INTER.ROT>
5

>  <SCORE.INTER.SOLV>
10.0252

>  <SCORE.INTER.VDW>
-46.6379

>  <SCORE.INTER.norm>
-2.18177

>  <SCORE.INTRA>
0.54056

>  <SCORE.INTRA.DIHEDRAL>
1.97643

>  <SCORE.INTRA.DIHEDRAL.0>
2.1627

>  <SCORE.INTRA.POLAR>
0

>  <SCORE.INTRA.POLAR.0>
0

>  <SCORE.INTRA.REPUL>
0

>  <SCORE.INTRA.REPUL.0>
0

>  <SCORE.INTRA.SOLV>
0.0194293

>  <SCORE.INTRA.SOLV.lig_0>
-5.95779

>  <SCORE.INTRA.VDW>
-0.457371

>  <SCORE.INTRA.VDW.0>
3.81702

>  <SCORE.INTRA.norm>
0.0216224

>  <SCORE.RESTR>
0

>  <SCORE.RESTR.CAVITY>
0

>  <SCORE.RESTR.norm>
0

>  <SCORE.SYSTEM>
0

>  <SCORE.SYSTEM.CONST>
0

>  <SCORE.SYSTEM.DIHEDRAL>
0

>  <SCORE.SYSTEM.SOLV>
0

>  <SCORE.SYSTEM.norm>
0

>  <SCORE.heavy>
25

>  <SCORE.norm>
-2.16015

>  <RMSD>
0.771

$$$$
1q8n_lig
 OpenBabel11021811403D
libRbt.so/2013.1/901 2013/11/27
 25 27  0  0  0  0  0  0  0  0999 V2000
    0.5954    0.7657   -1.5875 C   0  0  0  0  0  0  0  0  0  0  0  0
    0.4962    1.8763   -2.7800 C   0  0  0  0  0  0  0  0  0  0  0  0
    2.5955   -4.6664   -2.9708 N   0  0  0  0  0  0  0  0  0  0  0  0
   -0.1775    1.6722   -3.9374 C   0  0  0  0  0  0  0  0  0  0  0  0
   -1.1382    2.2203    3.9616 N   0  0  0  0  0  0  0  0  0  0  0  0
   -0.2381    2.7049   -4.9974 C   0  0  0  0  0  0  0  0  0  0  0  0
    0.3905    3.8892   -4.8177 C   0  0  0  0  0  0  0  0  0  0  0  0
    1.1089    4.1301   -3.5882 C   0  0  0  0  0  0  0  0  0  0  0  0
    1.1578    3.1904   -2.6408 C   0  0  0  0  0  0  0  0  0  0  0  0
    1.1433   -0.7244   -1.9614 C   0  0  0  0  0  0  0  0  0  0  0  0
    1.0546   -1.7433   -1.0814 C   0  0  0  0  0  0  0  0  0  0  0  0
    1.5496   -3.1100   -1.4056 C   0  0  0  0  0  0  0  0  0  0  0  0
    2.1089   -3.3653   -2.6185 C   0  0  0  0  0  0  0  0  0  0  0  0
    2.2107   -2.2616   -3.5919 C   0  0  0  0  0  0  0  0  0  0  0  0
    1.7618   -1.0370   -3.2830 C   0  0  0  0  0  0  0  0  0  0  0  0
    0.1552    1.1181   -0.0284 C   0  0  0  0  0  0  0  0  0  0  0  0
   -0.6291    2.3678    0.2625 C   0  0  0  0  0  0  0  0  0  0  0  0
   -1.0226    2.7045    1.4938 C   0  0  0  0  0  0  0  0  0  0  0  0
   -0.7016    1.8549    2.6466 C   0  0  0  0  0  0  0  0  0  0  0  0
    0.0060    0.7245    2.4414 C   0  0  0  0  0  0  0  0  0  0  0  0
    0.4524    0.3350    1.0615 C   0  0  0  0  0  0  0  0  0  0  0  0
    3.6163   -4.8595   -3.9552 C   0  0  0  0  0  0  0  0  0  0  0  0
    2.0625   -5.8302   -2.3331 C   0  0  0  0  0  0  0  0  0  0  0  0
   -1.8878    3.4261    4.1678 C   0  0  0  0  0  0  0  0  0  0  0  0
   -0.8442    1.3898    5.1075 C   0  0  0  0  0  0  0  0  0  0  0  0
  1  2  1  0  0  0  0
  1 10  1  0  0  0  0
  1 16  1  0  0  0  0
  2  4  2  0  0  0  0
  2  9  1  0  0  0  0
  4  6  1  0  0  0  0
  6  7  2  0  0  0  0
  7  8  1  0  0  0  0
  8  9  2  0  0  0  0
 10 11  2  0  0  0  0
 10 15  1  0  0  0  0
 11 12  1  0  0  0  0
 12 13  2  0  0  0  0
 13  3  1  0  0  0  0
 13 14  1  0  0  0  0
 14 15  2  0  0  0  0
 16 17  2  0  0  0  0
 16 21  1  0  0  0  0
 17 18  1  0  0  0  0
 18 19  2  0  0  0  0
 19  5  1  0  0  0  0
 19 20  1  0  0  0  0
 20 21  2  0  0  0  0
 22  3  1  0  0  0  0
 23  3  1  0  0  0  0
 24  5  1  0  0  0  0
 25  5  1  0  0  0  0
M  END
>  <CHROM.1>
54.31838993,-169.50803690,13.60123432,-154.88987020,-0.38051820,0.63604944
0.22132485,-1.00578032,0.13014869,1.20447712,-0.91718050

>  <Name>
1q8n_lig

>  <RI>
0

>  <Rbt.Current_Directory>
/home/itssahil/PROJECTS/Mol_Feturizer/New_Systems/rnas/1q8n

>  <Rbt.Executable>
rbdock ($Id: //depot/dev/client3/rdock/2013.1/src/exe/rbdock.cxx#4 $)

>  <Rbt.Library>
libRbt.so (2013.1, Build901 2013/11/27)

>  <Rbt.Parameter_File>
/export/apps/rDock/src/rDock_2013.1_src/data/scripts/dock_solv.prm

>  <Rbt.Receptor>
prm/blind_docking_40.prm

>  <SCORE>
-52.8918

>  <SCORE.INTER>
-53.5821

>  <SCORE.INTER.CONST>
1

>  <SCORE.INTER.POLAR>
0

>  <SCORE.INTER.ROT>
5

>  <SCORE.INTER.SOLV>
10.187

>  <SCORE.INTER.VDW>
-46.0504

>  <SCORE.INTER.norm>
-2.14328

>  <SCORE.INTRA>
0.690318

>  <SCORE.INTRA.DIHEDRAL>
2.30326

>  <SCORE.INTRA.DIHEDRAL.0>
2.1627

>  <SCORE.INTRA.POLAR>
0

>  <SCORE.INTRA.POLAR.0>
0

>  <SCORE.INTRA.REPUL>
0

>  <SCORE.INTRA.REPUL.0>
0

>  <SCORE.INTRA.SOLV>
0.0236885

>  <SCORE.INTRA.SOLV.lig_0>
-5.95779

>  <SCORE.INTRA.VDW>
-0.473156

>  <SCORE.INTRA.VDW.0>
3.81702

>  <SCORE.INTRA.norm>
0.0276127

>  <SCORE.RESTR>
0

>  <SCORE.RESTR.CAVITY>
0

>  <SCORE.RESTR.norm>
0

>  <SCORE.SYSTEM>
0

>  <SCORE.SYSTEM.CONST>
0

>  <SCORE.SYSTEM.DIHEDRAL>
0

>  <SCORE.SYSTEM.SOLV>
0

>  <SCORE.SYSTEM.norm>
0

>  <SCORE.heavy>
25

>  <SCORE.norm>
-2.11567

>  <RMSD>
0.772

$$$$
1q8n_lig
 OpenBabel11021811413D
libRbt.so/2013.1/901 2013/11/27
 25 27  0  0  0  0  0  0  0  0999 V2000
    0.6417    0.8411   -1.5587 C   0  0  0  0  0  0  0  0  0  0  0  0
    0.5750    1.9797   -2.7268 C   0  0  0  0  0  0  0  0  0  0  0  0
    2.5875   -4.5960   -2.9990 N   0  0  0  0  0  0  0  0  0  0  0  0
    1.1817    3.1868   -2.6296 C   0  0  0  0  0  0  0  0  0  0  0  0
   -1.1581    2.1896    3.9960 N   0  0  0  0  0  0  0  0  0  0  0  0
    1.0915    4.1949   -3.7110 C   0  0  0  0  0  0  0  0  0  0  0  0
    0.3886    3.9153   -4.8326 C   0  0  0  0  0  0  0  0  0  0  0  0
   -0.2605    2.6314   -4.9597 C   0  0  0  0  0  0  0  0  0  0  0  0
   -0.1734    1.7317   -3.9768 C   0  0  0  0  0  0  0  0  0  0  0  0
    1.1752   -0.6475   -1.9586 C   0  0  0  0  0  0  0  0  0  0  0  0
    1.7423   -0.8880   -3.1590 C   0  0  0  0  0  0  0  0  0  0  0  0
    2.2349   -2.2405   -3.5411 C   0  0  0  0  0  0  0  0  0  0  0  0
    2.1243   -3.2800   -2.6713 C   0  0  0  0  0  0  0  0  0  0  0  0
    1.5084   -3.0317   -1.3541 C   0  0  0  0  0  0  0  0  0  0  0  0
    1.0686   -1.8085   -1.0271 C   0  0  0  0  0  0  0  0  0  0  0  0
    0.1833    1.1640    0.0015 C   0  0  0  0  0  0  0  0  0  0  0  0
   -0.6129    2.4031    0.3053 C   0  0  0  0  0  0  0  0  0  0  0  0
   -1.0212    2.7161    1.5381 C   0  0  0  0  0  0  0  0  0  0  0  0
   -0.7056    1.8495    2.6796 C   0  0  0  0  0  0  0  0  0  0  0  0
    0.0121    0.7277    2.4627 C   0  0  0  0  0  0  0  0  0  0  0  0
    0.4752    0.3648    1.0811 C   0  0  0  0  0  0  0  0  0  0  0  0
    3.5772   -4.8286   -4.0064 C   0  0  0  0  0  0  0  0  0  0  0  0
    2.0618   -5.7349   -2.3121 C   0  0  0  0  0  0  0  0  0  0  0  0
   -0.8923    1.3159    5.1025 C   0  0  0  0  0  0  0  0  0  0  0  0
   -1.8836    3.4145    4.2468 C   0  0  0  0  0  0  0  0  0  0  0  0
  1  2  1  0  0  0  0
  1 10  1  0  0  0  0
  1 16  1  0  0  0  0
  2  4  2  0  0  0  0
  2  9  1  0  0  0  0
  4  6  1  0  0  0  0
  6  7  2  0  0  0  0
  7  8  1  0  0  0  0
  8  9  2  0  0  0  0
 10 11  2  0  0  0  0
 10 15  1  0  0  0  0
 11 12  1  0  0  0  0
 12 13  2  0  0  0  0
 13  3  1  0  0  0  0
 13 14  1  0  0  0  0
 14 15  2  0  0  0  0
 16 17  2  0  0  0  0
 16 21  1  0  0  0  0
 17 18  1  0  0  0  0
 18 19  2  0  0  0  0
 19  5  1  0  0  0  0
 19 20  1  0  0  0  0
 20 21  2  0  0  0  0
 22  3  1  0  0  0  0
 23  3  1  0  0  0  0
 24  5  1  0  0  0  0
 25  5  1  0  0  0  0
M  END
>  <CHROM.1>
-125.14494253,10.17924033,14.85718391,22.10857470,177.63330454,0.63875044
0.25220466,-0.98892846,0.13939154,1.20312647,-0.90717411

>  <Name>
1q8n_lig

>  <RI>
0

>  <Rbt.Current_Directory>
/home/itssahil/PROJECTS/Mol_Feturizer/New_Systems/rnas/1q8n

>  <Rbt.Executable>
rbdock ($Id: //depot/dev/client3/rdock/2013.1/src/exe/rbdock.cxx#4 $)

>  <Rbt.Library>
libRbt.so (2013.1, Build901 2013/11/27)

>  <Rbt.Parameter_File>
/export/apps/rDock/src/rDock_2013.1_src/data/scripts/dock_solv.prm

>  <Rbt.Receptor>
prm/pocket_docking_7.prm

>  <SCORE>
-53.9879

>  <SCORE.INTER>
-54.5654

>  <SCORE.INTER.CONST>
1

>  <SCORE.INTER.POLAR>
0

>  <SCORE.INTER.ROT>
5

>  <SCORE.INTER.SOLV>
10.0532

>  <SCORE.INTER.VDW>
-46.6614

>  <SCORE.INTER.norm>
-2.18262

>  <SCORE.INTRA>
0.577515

>  <SCORE.INTRA.DIHEDRAL>
1.83166

>  <SCORE.INTRA.DIHEDRAL.0>
2.1627

>  <SCORE.INTRA.POLAR>
0

>  <SCORE.INTRA.POLAR.0>
0

>  <SCORE.INTRA.REPUL>
0

>  <SCORE.INTRA.REPUL.0>
0

>  <SCORE.INTRA.SOLV>
0.0235713

>  <SCORE.INTRA.SOLV.lig_0>
-5.95779

>  <SCORE.INTRA.VDW>
-0.350103

>  <SCORE.INTRA.VDW.0>
3.81702

>  <SCORE.INTRA.norm>
0.0231006

>  <SCORE.RESTR>
0

>  <SCORE.RESTR.CAVITY>
0

>  <SCORE.RESTR.norm>
0

>  <SCORE.SYSTEM>
0

>  <SCORE.SYSTEM.CONST>
0

>  <SCORE.SYSTEM.DIHEDRAL>
0

>  <SCORE.SYSTEM.SOLV>
0

>  <SCORE.SYSTEM.norm>
0

>  <SCORE.heavy>
25

>  <SCORE.norm>
-2.15952

>  <RMSD>
0.774

$$$$
1q8n_lig
 OpenBabel11021811403D
libRbt.so/2013.1/901 2013/11/27
 25 27  0  0  0  0  0  0  0  0999 V2000
    0.6435    0.8404   -1.5661 C   0  0  0  0  0  0  0  0  0  0  0  0
    0.5805    1.9839   -2.7297 C   0  0  0  0  0  0  0  0  0  0  0  0
    2.5626   -4.5998   -3.0297 N   0  0  0  0  0  0  0  0  0  0  0  0
    1.1709    3.1979   -2.6175 C   0  0  0  0  0  0  0  0  0  0  0  0
   -1.1490    2.1713    3.9953 N   0  0  0  0  0  0  0  0  0  0  0  0
    1.0848    4.2100   -3.6954 C   0  0  0  0  0  0  0  0  0  0  0  0
    0.4026    3.9274   -4.8289 C   0  0  0  0  0  0  0  0  0  0  0  0
   -0.2288    2.6363   -4.9719 C   0  0  0  0  0  0  0  0  0  0  0  0
   -0.1456    1.7329   -3.9921 C   0  0  0  0  0  0  0  0  0  0  0  0
    1.1698   -0.6489   -1.9723 C   0  0  0  0  0  0  0  0  0  0  0  0
    1.7660   -0.8800   -3.1604 C   0  0  0  0  0  0  0  0  0  0  0  0
    2.2526   -2.2331   -3.5481 C   0  0  0  0  0  0  0  0  0  0  0  0
    2.1065   -3.2829   -2.6961 C   0  0  0  0  0  0  0  0  0  0  0  0
    1.4585   -3.0451   -1.3924 C   0  0  0  0  0  0  0  0  0  0  0  0
    1.0246   -1.8212   -1.0602 C   0  0  0  0  0  0  0  0  0  0  0  0
    0.1883    1.1593   -0.0041 C   0  0  0  0  0  0  0  0  0  0  0  0
   -0.6308    2.3832    0.3006 C   0  0  0  0  0  0  0  0  0  0  0  0
   -1.0378    2.6921    1.5349 C   0  0  0  0  0  0  0  0  0  0  0  0
   -0.6978    1.8359    2.6772 C   0  0  0  0  0  0  0  0  0  0  0  0
    0.0410    0.7281    2.4595 C   0  0  0  0  0  0  0  0  0  0  0  0
    0.5028    0.3699    1.0763 C   0  0  0  0  0  0  0  0  0  0  0  0
    2.0345   -5.7728   -2.4023 C   0  0  0  0  0  0  0  0  0  0  0  0
    3.5784   -4.7794   -4.0203 C   0  0  0  0  0  0  0  0  0  0  0  0
   -1.8997    3.3729    4.2210 C   0  0  0  0  0  0  0  0  0  0  0  0
   -0.8689    1.3140    5.1250 C   0  0  0  0  0  0  0  0  0  0  0  0
  1  2  1  0  0  0  0
  1 10  1  0  0  0  0
  1 16  1  0  0  0  0
  2  4  2  0  0  0  0
  2  9  1  0  0  0  0
  4  6  1  0  0  0  0
  6  7  2  0  0  0  0
  7  8  1  0  0  0  0
  8  9  2  0  0  0  0
 10 11  2  0  0  0  0
 10 15  1  0  0  0  0
 11 12  1  0  0  0  0
 12 13  2  0  0  0  0
 13  3  1  0  0  0  0
 13 14  1  0  0  0  0
 14 15  2  0  0  0  0
 16 17  2  0  0  0  0
 16 21  1  0  0  0  0
 17 18  1  0  0  0  0
 18 19  2  0  0  0  0
 19  5  1  0  0  0  0
 19 20  1  0  0  0  0
 20 21  2  0  0  0  0
 22  3  1  0  0  0  0
 23  3  1  0  0  0  0
 24  5  1  0  0  0  0
 25  5  1  0  0  0  0
M  END
>  <CHROM.1>
-126.48700616,11.92565058,16.35571198,-157.83967407,-2.15095383,0.63811390
0.24891896,-1.00085931,0.13376452,1.20581217,-0.89640142

>  <Name>
1q8n_lig

>  <RI>
0

>  <Rbt.Current_Directory>
/home/itssahil/PROJECTS/Mol_Feturizer/New_Systems/rnas/1q8n

>  <Rbt.Executable>
rbdock ($Id: //depot/dev/client3/rdock/2013.1/src/exe/rbdock.cxx#4 $)

>  <Rbt.Library>
libRbt.so (2013.1, Build901 2013/11/27)

>  <Rbt.Parameter_File>
/export/apps/rDock/src/rDock_2013.1_src/data/scripts/dock_solv.prm

>  <Rbt.Receptor>
prm/pocket_docking_5.prm

>  <SCORE>
-53.9156

>  <SCORE.INTER>
-54.4179

>  <SCORE.INTER.CONST>
1

>  <SCORE.INTER.POLAR>
0

>  <SCORE.INTER.ROT>
5

>  <SCORE.INTER.SOLV>
10.0133

>  <SCORE.INTER.VDW>
-46.5497

>  <SCORE.INTER.norm>
-2.17671

>  <SCORE.INTRA>
0.502211

>  <SCORE.INTRA.DIHEDRAL>
1.83577

>  <SCORE.INTRA.DIHEDRAL.0>
2.1627

>  <SCORE.INTRA.POLAR>
0

>  <SCORE.INTRA.POLAR.0>
0

>  <SCORE.INTRA.REPUL>
0

>  <SCORE.INTRA.REPUL.0>
0

>  <SCORE.INTRA.SOLV>
0.0235845

>  <SCORE.INTRA.SOLV.lig_0>
-5.95779

>  <SCORE.INTRA.VDW>
-0.427469

>  <SCORE.INTRA.VDW.0>
3.81702

>  <SCORE.INTRA.norm>
0.0200884

>  <SCORE.RESTR>
0

>  <SCORE.RESTR.CAVITY>
0

>  <SCORE.RESTR.norm>
0

>  <SCORE.SYSTEM>
0

>  <SCORE.SYSTEM.CONST>
0

>  <SCORE.SYSTEM.DIHEDRAL>
0

>  <SCORE.SYSTEM.SOLV>
0

>  <SCORE.SYSTEM.norm>
0

>  <SCORE.heavy>
25

>  <SCORE.norm>
-2.15663

>  <RMSD>
0.776

$$$$
1q8n_lig
 OpenBabel11021811403D
libRbt.so/2013.1/901 2013/11/27
 25 27  0  0  0  0  0  0  0  0999 V2000
    0.5295    0.8952   -1.5949 C   0  0  0  0  0  0  0  0  0  0  0  0
    0.5065    1.9887   -2.8070 C   0  0  0  0  0  0  0  0  0  0  0  0
    2.4334   -4.6180   -2.7783 N   0  0  0  0  0  0  0  0  0  0  0  0
    1.1911    3.1571   -2.7727 C   0  0  0  0  0  0  0  0  0  0  0  0
   -1.0971    2.1238    4.0405 N   0  0  0  0  0  0  0  0  0  0  0  0
    1.1386    4.1253   -3.8924 C   0  0  0  0  0  0  0  0  0  0  0  0
    0.3920    3.8476   -4.9857 C   0  0  0  0  0  0  0  0  0  0  0  0
   -0.3405    2.6043   -5.0457 C   0  0  0  0  0  0  0  0  0  0  0  0
   -0.2866    1.7403   -4.0290 C   0  0  0  0  0  0  0  0  0  0  0  0
    1.0512   -0.6145   -1.9245 C   0  0  0  0  0  0  0  0  0  0  0  0
    1.5572   -0.9310   -3.1345 C   0  0  0  0  0  0  0  0  0  0  0  0
    2.0382   -2.3040   -3.4531 C   0  0  0  0  0  0  0  0  0  0  0  0
    1.9793   -3.2850   -2.5131 C   0  0  0  0  0  0  0  0  0  0  0  0
    1.4305   -2.9533   -1.1846 C   0  0  0  0  0  0  0  0  0  0  0  0
    1.0003   -1.7128   -0.9153 C   0  0  0  0  0  0  0  0  0  0  0  0
    0.0388    1.2841   -0.0597 C   0  0  0  0  0  0  0  0  0  0  0  0
    0.4162    0.3954    1.0932 C   0  0  0  0  0  0  0  0  0  0  0  0
    0.0613    0.6569    2.3542 C   0  0  0  0  0  0  0  0  0  0  0  0
   -0.7312    1.8475    2.6829 C   0  0  0  0  0  0  0  0  0  0  0  0
   -1.1017    2.6755    1.6840 C   0  0  0  0  0  0  0  0  0  0  0  0
   -0.7072    2.3926    0.2630 C   0  0  0  0  0  0  0  0  0  0  0  0
    1.9576   -5.7481   -2.0400 C   0  0  0  0  0  0  0  0  0  0  0  0
    3.3936   -4.8584   -3.8105 C   0  0  0  0  0  0  0  0  0  0  0  0
   -1.8358    3.3100    4.3655 C   0  0  0  0  0  0  0  0  0  0  0  0
   -0.7414    1.2211    5.1120 C   0  0  0  0  0  0  0  0  0  0  0  0
  1  2  1  0  0  0  0
  1 10  1  0  0  0  0
  1 16  1  0  0  0  0
  2  4  2  0  0  0  0
  2  9  1  0  0  0  0
  4  6  1  0  0  0  0
  6  7  2  0  0  0  0
  7  8  1  0  0  0  0
  8  9  2  0  0  0  0
 10 11  2  0  0  0  0
 10 15  1  0  0  0  0
 11 12  1  0  0  0  0
 12 13  2  0  0  0  0
 13  3  1  0  0  0  0
 13 14  1  0  0  0  0
 14 15  2  0  0  0  0
 16 17  2  0  0  0  0
 16 21  1  0  0  0  0
 17 18  1  0  0  0  0
 18 19  2  0  0  0  0
 19  5  1  0  0  0  0
 19 20  1  0  0  0  0
 20 21  2  0  0  0  0
 22  3  1  0  0  0  0
 23  3  1  0  0  0  0
 24  5  1  0  0  0  0
 25  5  1  0  0  0  0
M  END
>  <CHROM.1>
-121.17570886,5.45814388,-163.36527371,-156.50414311,178.03453601,0.57455775
0.23699012,-0.95849905,0.18070089,1.21426425,-0.93438142

>  <Name>
1q8n_lig

>  <RI>
0

>  <Rbt.Current_Directory>
/home/itssahil/PROJECTS/Mol_Feturizer/New_Systems/rnas/1q8n

>  <Rbt.Executable>
rbdock ($Id: //depot/dev/client3/rdock/2013.1/src/exe/rbdock.cxx#4 $)

>  <Rbt.Library>
libRbt.so (2013.1, Build901 2013/11/27)

>  <Rbt.Parameter_File>
/export/apps/rDock/src/rDock_2013.1_src/data/scripts/dock_solv.prm

>  <Rbt.Receptor>
prm/blind_docking_20.prm

>  <SCORE>
-53.8186

>  <SCORE.INTER>
-54.6666

>  <SCORE.INTER.CONST>
1

>  <SCORE.INTER.POLAR>
0

>  <SCORE.INTER.ROT>
5

>  <SCORE.INTER.SOLV>
10.0412

>  <SCORE.INTER.VDW>
-46.7248

>  <SCORE.INTER.norm>
-2.18666

>  <SCORE.INTRA>
0.847975

>  <SCORE.INTRA.DIHEDRAL>
2.04873

>  <SCORE.INTRA.DIHEDRAL.0>
2.1627

>  <SCORE.INTRA.POLAR>
0

>  <SCORE.INTRA.POLAR.0>
0

>  <SCORE.INTRA.REPUL>
0

>  <SCORE.INTRA.REPUL.0>
0

>  <SCORE.INTRA.SOLV>
0.0281583

>  <SCORE.INTRA.SOLV.lig_0>
-5.95779

>  <SCORE.INTRA.VDW>
-0.190467

>  <SCORE.INTRA.VDW.0>
3.81702

>  <SCORE.INTRA.norm>
0.033919

>  <SCORE.RESTR>
0

>  <SCORE.RESTR.CAVITY>
0

>  <SCORE.RESTR.norm>
0

>  <SCORE.SYSTEM>
0

>  <SCORE.SYSTEM.CONST>
0

>  <SCORE.SYSTEM.DIHEDRAL>
0

>  <SCORE.SYSTEM.SOLV>
0

>  <SCORE.SYSTEM.norm>
0

>  <SCORE.heavy>
25

>  <SCORE.norm>
-2.15274

>  <RMSD>
0.778

$$$$
1q8n_lig
 OpenBabel11021811403D
libRbt.so/2013.1/901 2013/11/27
 25 27  0  0  0  0  0  0  0  0999 V2000
    0.6050    0.7346   -1.7291 C   0  0  0  0  0  0  0  0  0  0  0  0
    0.5151    1.8970   -2.8720 C   0  0  0  0  0  0  0  0  0  0  0  0
   -1.0773    2.0713    3.8211 N   0  0  0  0  0  0  0  0  0  0  0  0
   -0.1183    1.7318   -4.0580 C   0  0  0  0  0  0  0  0  0  0  0  0
    2.7012   -4.6884   -3.1815 N   0  0  0  0  0  0  0  0  0  0  0  0
   -0.1717    2.8112   -5.0709 C   0  0  0  0  0  0  0  0  0  0  0  0
    0.4224    3.9998   -4.8176 C   0  0  0  0  0  0  0  0  0  0  0  0
    1.0974    4.1994   -3.5565 C   0  0  0  0  0  0  0  0  0  0  0  0
    1.1403    3.2179   -2.6520 C   0  0  0  0  0  0  0  0  0  0  0  0
    0.1422    1.1057   -0.2098 C   0  0  0  0  0  0  0  0  0  0  0  0
   -0.7010    2.1304    0.0338 C   0  0  0  0  0  0  0  0  0  0  0  0
   -1.1342    2.4835    1.4142 C   0  0  0  0  0  0  0  0  0  0  0  0
   -0.6832    1.7658    2.4776 C   0  0  0  0  0  0  0  0  0  0  0  0
    0.2376    0.6410    2.2266 C   0  0  0  0  0  0  0  0  0  0  0  0
    0.6189    0.3380    0.9778 C   0  0  0  0  0  0  0  0  0  0  0  0
    1.1507   -0.7916   -2.0781 C   0  0  0  0  0  0  0  0  0  0  0  0
    1.8800   -1.0478   -3.3681 C   0  0  0  0  0  0  0  0  0  0  0  0
    2.3531   -2.2507   -3.7048 C   0  0  0  0  0  0  0  0  0  0  0  0
    2.1801   -3.4049   -2.8150 C   0  0  0  0  0  0  0  0  0  0  0  0
    1.5271   -3.2308   -1.6472 C   0  0  0  0  0  0  0  0  0  0  0  0
    0.9922   -1.8828   -1.2575 C   0  0  0  0  0  0  0  0  0  0  0  0
   -1.8326    3.2422    4.1480 C   0  0  0  0  0  0  0  0  0  0  0  0
   -0.7188    1.1944    4.8924 C   0  0  0  0  0  0  0  0  0  0  0  0
    2.1072   -5.8872   -2.6634 C   0  0  0  0  0  0  0  0  0  0  0  0
    3.8264   -4.8125   -4.0804 C   0  0  0  0  0  0  0  0  0  0  0  0
  1  2  1  0  0  0  0
  1 10  1  0  0  0  0
  1 16  1  0  0  0  0
  2  4  2  0  0  0  0
  2  9  1  0  0  0  0
  4  6  1  0  0  0  0
  6  7  2  0  0  0  0
  7  8  1  0  0  0  0
  8  9  2  0  0  0  0
 10 11  2  0  0  0  0
 10 15  1  0  0  0  0
 11 12  1  0  0  0  0
 12 13  2  0  0  0  0
 13  3  1  0  0  0  0
 13 14  1  0  0  0  0
 14 15  2  0  0  0  0
 16 17  2  0  0  0  0
 16 21  1  0  0  0  0
 17 18  1  0  0  0  0
 18 19  2  0  0  0  0
 19  5  1  0  0  0  0
 19 20  1  0  0  0  0
 20 21  2  0  0  0  0
 22  3  1  0  0  0  0
 23  3  1  0  0  0  0
 24  5  1  0  0  0  0
 25  5  1  0  0  0  0
M  END
>  <CHROM.1>
-127.68590576,22.65523137,14.63172595,-7.86110344,-154.03659362,0.68747253
0.17154984,-1.14011998,3.02701281,-1.19807613,2.23411503

>  <Name>
1q8n_lig

>  <RI>
0

>  <Rbt.Current_Directory>
/home/itssahil/PROJECTS/Mol_Feturizer/New_Systems/rnas/1q8n

>  <Rbt.Executable>
rbdock ($Id: //depot/dev/client3/rdock/2013.1/src/exe/rbdock.cxx#4 $)

>  <Rbt.Library>
libRbt.so (2013.1, Build901 2013/11/27)

>  <Rbt.Parameter_File>
/export/apps/rDock/src/rDock_2013.1_src/data/scripts/dock_solv.prm

>  <Rbt.Receptor>
prm/pocket_docking_2.prm

>  <SCORE>
-50.7896

>  <SCORE.INTER>
-51.7408

>  <SCORE.INTER.CONST>
1

>  <SCORE.INTER.POLAR>
0

>  <SCORE.INTER.ROT>
5

>  <SCORE.INTER.SOLV>
10.2064

>  <SCORE.INTER.VDW>
-44.8293

>  <SCORE.INTER.norm>
-2.06963

>  <SCORE.INTRA>
0.518751

>  <SCORE.INTRA.DIHEDRAL>
2.68646

>  <SCORE.INTRA.DIHEDRAL.0>
2.1627

>  <SCORE.INTRA.POLAR>
0

>  <SCORE.INTRA.POLAR.0>
0

>  <SCORE.INTRA.REPUL>
0

>  <SCORE.INTRA.REPUL.0>
0

>  <SCORE.INTRA.SOLV>
0.0185589

>  <SCORE.INTRA.SOLV.lig_0>
-5.95779

>  <SCORE.INTRA.VDW>
-0.833759

>  <SCORE.INTRA.VDW.0>
3.81702

>  <SCORE.INTRA.norm>
0.02075

>  <SCORE.RESTR>
0.43242

>  <SCORE.RESTR.CAVITY>
0.43242

>  <SCORE.RESTR.norm>
0.0172968

>  <SCORE.SYSTEM>
0

>  <SCORE.SYSTEM.CONST>
0

>  <SCORE.SYSTEM.DIHEDRAL>
0

>  <SCORE.SYSTEM.SOLV>
0

>  <SCORE.SYSTEM.norm>
0

>  <SCORE.heavy>
25

>  <SCORE.norm>
-2.03158

>  <RMSD>
0.798

$$$$
1q8n_lig
 OpenBabel11021811403D
libRbt.so/2013.1/901 2013/11/27
 25 27  0  0  0  0  0  0  0  0999 V2000
    0.5785    0.9154   -1.5557 C   0  0  0  0  0  0  0  0  0  0  0  0
    0.5451    2.0234   -2.7544 C   0  0  0  0  0  0  0  0  0  0  0  0
    2.5498   -4.5511   -2.8413 N   0  0  0  0  0  0  0  0  0  0  0  0
    1.1177    3.2471   -2.6574 C   0  0  0  0  0  0  0  0  0  0  0  0
   -1.0839    2.0456    4.0898 N   0  0  0  0  0  0  0  0  0  0  0  0
    1.0595    4.2261   -3.7674 C   0  0  0  0  0  0  0  0  0  0  0  0
    0.4217    3.9021   -4.9155 C   0  0  0  0  0  0  0  0  0  0  0  0
   -0.1899    2.5999   -5.0426 C   0  0  0  0  0  0  0  0  0  0  0  0
   -0.1322    1.7267   -4.0340 C   0  0  0  0  0  0  0  0  0  0  0  0
    1.1181   -0.5841   -1.9029 C   0  0  0  0  0  0  0  0  0  0  0  0
    0.9396   -1.6082   -1.0427 C   0  0  0  0  0  0  0  0  0  0  0  0
    1.4255   -2.9835   -1.3430 C   0  0  0  0  0  0  0  0  0  0  0  0
    2.0686   -3.2418   -2.5131 C   0  0  0  0  0  0  0  0  0  0  0  0
    2.2693   -2.1325   -3.4645 C   0  0  0  0  0  0  0  0  0  0  0  0
    1.8271   -0.9001   -3.1775 C   0  0  0  0  0  0  0  0  0  0  0  0
    0.0808    1.2798   -0.0168 C   0  0  0  0  0  0  0  0  0  0  0  0
    0.3935    0.3375    1.1127 C   0  0  0  0  0  0  0  0  0  0  0  0
    0.0299    0.5765    2.3756 C   0  0  0  0  0  0  0  0  0  0  0  0
   -0.7084    1.7943    2.7299 C   0  0  0  0  0  0  0  0  0  0  0  0
   -1.0199    2.6708    1.7525 C   0  0  0  0  0  0  0  0  0  0  0  0
   -0.6151    2.4135    0.3296 C   0  0  0  0  0  0  0  0  0  0  0  0
    2.0340   -5.7326   -2.2195 C   0  0  0  0  0  0  0  0  0  0  0  0
    3.5794   -4.7141   -3.8204 C   0  0  0  0  0  0  0  0  0  0  0  0
   -1.7855    3.2477    4.4381 C   0  0  0  0  0  0  0  0  0  0  0  0
   -0.7754    1.1016    5.1400 C   0  0  0  0  0  0  0  0  0  0  0  0
  1  2  1  0  0  0  0
  1 10  1  0  0  0  0
  1 16  1  0  0  0  0
  2  4  2  0  0  0  0
  2  9  1  0  0  0  0
  4  6  1  0  0  0  0
  6  7  2  0  0  0  0
  7  8  1  0  0  0  0
  8  9  2  0  0  0  0
 10 11  2  0  0  0  0
 10 15  1  0  0  0  0
 11 12  1  0  0  0  0
 12 13  2  0  0  0  0
 13  3  1  0  0  0  0
 13 14  1  0  0  0  0
 14 15  2  0  0  0  0
 16 17  2  0  0  0  0
 16 21  1  0  0  0  0
 17 18  1  0  0  0  0
 18 19  2  0  0  0  0
 19  5  1  0  0  0  0
 19 20  1  0  0  0  0
 20 21  2  0  0  0  0
 22  3  1  0  0  0  0
 23  3  1  0  0  0  0
 24  5  1  0  0  0  0
 25  5  1  0  0  0  0
M  END
>  <CHROM.1>
-127.23135867,-167.33888325,-167.14704196,20.96645189,178.91823666,0.63313252
0.25319901,-0.94991773,2.96167014,-1.20406248,2.23100710

>  <Name>
1q8n_lig

>  <RI>
0

>  <Rbt.Current_Directory>
/home/itssahil/PROJECTS/Mol_Feturizer/New_Systems/rnas/1q8n

>  <Rbt.Executable>
rbdock ($Id: //depot/dev/client3/rdock/2013.1/src/exe/rbdock.cxx#4 $)

>  <Rbt.Library>
libRbt.so (2013.1, Build901 2013/11/27)

>  <Rbt.Parameter_File>
/export/apps/rDock/src/rDock_2013.1_src/data/scripts/dock_solv.prm

>  <Rbt.Receptor>
prm/blind_docking_40.prm

>  <SCORE>
-53.3411

>  <SCORE.INTER>
-54.1635

>  <SCORE.INTER.CONST>
1

>  <SCORE.INTER.POLAR>
0

>  <SCORE.INTER.ROT>
5

>  <SCORE.INTER.SOLV>
9.90254

>  <SCORE.INTER.VDW>
-46.3432

>  <SCORE.INTER.norm>
-2.16654

>  <SCORE.INTRA>
0.822412

>  <SCORE.INTRA.DIHEDRAL>
1.64309

>  <SCORE.INTRA.DIHEDRAL.0>
2.1627

>  <SCORE.INTRA.POLAR>
0

>  <SCORE.INTRA.POLAR.0>
0

>  <SCORE.INTRA.REPUL>
0

>  <SCORE.INTRA.REPUL.0>
0

>  <SCORE.INTRA.SOLV>
0.0306304

>  <SCORE.INTRA.SOLV.lig_0>
-5.95779

>  <SCORE.INTRA.VDW>
-0.0144479

>  <SCORE.INTRA.VDW.0>
3.81702

>  <SCORE.INTRA.norm>
0.0328965

>  <SCORE.RESTR>
0

>  <SCORE.RESTR.CAVITY>
0

>  <SCORE.RESTR.norm>
0

>  <SCORE.SYSTEM>
0

>  <SCORE.SYSTEM.CONST>
0

>  <SCORE.SYSTEM.DIHEDRAL>
0

>  <SCORE.SYSTEM.SOLV>
0

>  <SCORE.SYSTEM.norm>
0

>  <SCORE.heavy>
25

>  <SCORE.norm>
-2.13364

>  <RMSD>
0.810

$$$$
1q8n_lig
 OpenBabel11021811403D
libRbt.so/2013.1/901 2013/11/27
 25 27  0  0  0  0  0  0  0  0999 V2000
    0.5936    0.7986   -1.5146 C   0  0  0  0  0  0  0  0  0  0  0  0
    0.5400    1.9733   -2.6471 C   0  0  0  0  0  0  0  0  0  0  0  0
   -1.1283    2.1544    4.0188 N   0  0  0  0  0  0  0  0  0  0  0  0
    0.0022    1.8006   -3.8783 C   0  0  0  0  0  0  0  0  0  0  0  0
    2.5728   -4.6567   -3.0099 N   0  0  0  0  0  0  0  0  0  0  0  0
   -0.0212    2.8919   -4.8796 C   0  0  0  0  0  0  0  0  0  0  0  0
    0.5038    4.0993   -4.5691 C   0  0  0  0  0  0  0  0  0  0  0  0
    1.0762    4.3069   -3.2595 C   0  0  0  0  0  0  0  0  0  0  0  0
    1.0930    3.3146   -2.3661 C   0  0  0  0  0  0  0  0  0  0  0  0
    0.1228    1.1651    0.0034 C   0  0  0  0  0  0  0  0  0  0  0  0
    0.4340    0.3652    1.0444 C   0  0  0  0  0  0  0  0  0  0  0  0
    0.0126    0.6841    2.4368 C   0  0  0  0  0  0  0  0  0  0  0  0
   -0.7053    1.8101    2.6936 C   0  0  0  0  0  0  0  0  0  0  0  0
   -1.0511    2.6956    1.5656 C   0  0  0  0  0  0  0  0  0  0  0  0
   -0.6654    2.3926    0.3182 C   0  0  0  0  0  0  0  0  0  0  0  0
    1.1108   -0.7354   -1.8727 C   0  0  0  0  0  0  0  0  0  0  0  0
    1.7454   -1.0179   -3.2065 C   0  0  0  0  0  0  0  0  0  0  0  0
    2.1915   -2.2283   -3.5532 C   0  0  0  0  0  0  0  0  0  0  0  0
    2.0811   -3.3650   -2.6315 C   0  0  0  0  0  0  0  0  0  0  0  0
    1.5137   -3.1670   -1.4235 C   0  0  0  0  0  0  0  0  0  0  0  0
    1.0100   -1.8105   -1.0221 C   0  0  0  0  0  0  0  0  0  0  0  0
   -0.8518    1.3215    5.1494 C   0  0  0  0  0  0  0  0  0  0  0  0
   -1.8524    3.3657    4.2504 C   0  0  0  0  0  0  0  0  0  0  0  0
    3.5991   -4.7790   -4.0050 C   0  0  0  0  0  0  0  0  0  0  0  0
    2.0587   -5.8630   -2.4015 C   0  0  0  0  0  0  0  0  0  0  0  0
  1  2  1  0  0  0  0
  1 10  1  0  0  0  0
  1 16  1  0  0  0  0
  2  4  2  0  0  0  0
  2  9  1  0  0  0  0
  4  6  1  0  0  0  0
  6  7  2  0  0  0  0
  7  8  1  0  0  0  0
  8  9  2  0  0  0  0
 10 11  2  0  0  0  0
 10 15  1  0  0  0  0
 11 12  1  0  0  0  0
 12 13  2  0  0  0  0
 13  3  1  0  0  0  0
 13 14  1  0  0  0  0
 14 15  2  0  0  0  0
 16 17  2  0  0  0  0
 16 21  1  0  0  0  0
 17 18  1  0  0  0  0
 18 19  2  0  0  0  0
 19  5  1  0  0  0  0
 19 20  1  0  0  0  0
 20 21  2  0  0  0  0
 22  3  1  0  0  0  0
 23  3  1  0  0  0  0
 24  5  1  0  0  0  0
 25  5  1  0  0  0  0
M  END
>  <CHROM.1>
-132.73506847,-163.94892069,9.54058247,-1.56315894,24.04082965,0.64248187
0.24971693,-0.94054532,3.09823626,-1.21003487,2.30200295

>  <Name>
1q8n_lig

>  <RI>
0

>  <Rbt.Current_Directory>
/home/itssahil/PROJECTS/Mol_Feturizer/New_Systems/rnas/1q8n

>  <Rbt.Executable>
rbdock ($Id: //depot/dev/client3/rdock/2013.1/src/exe/rbdock.cxx#4 $)

>  <Rbt.Library>
libRbt.so (2013.1, Build901 2013/11/27)

>  <Rbt.Parameter_File>
/export/apps/rDock/src/rDock_2013.1_src/data/scripts/dock_solv.prm

>  <Rbt.Receptor>
prm/pocket_docking_4.prm

>  <SCORE>
-51.9927

>  <SCORE.INTER>
-52.6202

>  <SCORE.INTER.CONST>
1

>  <SCORE.INTER.POLAR>
0

>  <SCORE.INTER.ROT>
5

>  <SCORE.INTER.SOLV>
10.215

>  <SCORE.INTER.VDW>
-45.4185

>  <SCORE.INTER.norm>
-2.10481

>  <SCORE.INTRA>
0.627505

>  <SCORE.INTRA.DIHEDRAL>
2.12977

>  <SCORE.INTRA.DIHEDRAL.0>
2.1627

>  <SCORE.INTRA.POLAR>
0

>  <SCORE.INTRA.POLAR.0>
0

>  <SCORE.INTRA.REPUL>
0

>  <SCORE.INTRA.REPUL.0>
0

>  <SCORE.INTRA.SOLV>
0.0331861

>  <SCORE.INTRA.SOLV.lig_0>
-5.95779

>  <SCORE.INTRA.VDW>
-0.453971

>  <SCORE.INTRA.VDW.0>
3.81702

>  <SCORE.INTRA.norm>
0.0251002

>  <SCORE.RESTR>
0

>  <SCORE.RESTR.CAVITY>
0

>  <SCORE.RESTR.norm>
0

>  <SCORE.SYSTEM>
0

>  <SCORE.SYSTEM.CONST>
0

>  <SCORE.SYSTEM.DIHEDRAL>
0

>  <SCORE.SYSTEM.SOLV>
0

>  <SCORE.SYSTEM.norm>
0

>  <SCORE.heavy>
25

>  <SCORE.norm>
-2.07971

>  <RMSD>
0.827

$$$$
1q8n_lig
 OpenBabel11021811403D
libRbt.so/2013.1/901 2013/11/27
 25 27  0  0  0  0  0  0  0  0999 V2000
    0.5841    0.7819   -1.4904 C   0  0  0  0  0  0  0  0  0  0  0  0
    0.5309    1.9496   -2.6301 C   0  0  0  0  0  0  0  0  0  0  0  0
   -1.1362    2.1728    4.0348 N   0  0  0  0  0  0  0  0  0  0  0  0
   -0.0216    1.7745   -3.8544 C   0  0  0  0  0  0  0  0  0  0  0  0
    2.5560   -4.6844   -2.9548 N   0  0  0  0  0  0  0  0  0  0  0  0
   -0.0441    2.8593   -4.8627 C   0  0  0  0  0  0  0  0  0  0  0  0
    0.4969    4.0632   -4.5659 C   0  0  0  0  0  0  0  0  0  0  0  0
    1.0852    4.2733   -3.2638 C   0  0  0  0  0  0  0  0  0  0  0  0
    1.1010    3.2868   -2.3639 C   0  0  0  0  0  0  0  0  0  0  0  0
    0.1138    1.1580    0.0254 C   0  0  0  0  0  0  0  0  0  0  0  0
    0.4198    0.3615    1.0705 C   0  0  0  0  0  0  0  0  0  0  0  0
   -0.0013    0.6891    2.4609 C   0  0  0  0  0  0  0  0  0  0  0  0
   -0.7136    1.8201    2.7117 C   0  0  0  0  0  0  0  0  0  0  0  0
   -1.0537    2.7020    1.5792 C   0  0  0  0  0  0  0  0  0  0  0  0
   -0.6684    2.3911    0.3336 C   0  0  0  0  0  0  0  0  0  0  0  0
    1.1005   -0.7545   -1.8390 C   0  0  0  0  0  0  0  0  0  0  0  0
    1.7098   -1.0517   -3.1814 C   0  0  0  0  0  0  0  0  0  0  0  0
    2.1540   -2.2647   -3.5214 C   0  0  0  0  0  0  0  0  0  0  0  0
    2.0665   -3.3899   -2.5833 C   0  0  0  0  0  0  0  0  0  0  0  0
    1.5223   -3.1786   -1.3669 C   0  0  0  0  0  0  0  0  0  0  0  0
    1.0210   -1.8190   -0.9730 C   0  0  0  0  0  0  0  0  0  0  0  0
   -0.8487    1.3532    5.1724 C   0  0  0  0  0  0  0  0  0  0  0  0
   -1.8709    3.3795    4.2571 C   0  0  0  0  0  0  0  0  0  0  0  0
    3.6007   -4.8122   -3.9298 C   0  0  0  0  0  0  0  0  0  0  0  0
    2.0211   -5.8881   -2.3594 C   0  0  0  0  0  0  0  0  0  0  0  0
  1  2  1  0  0  0  0
  1 10  1  0  0  0  0
  1 16  1  0  0  0  0
  2  4  2  0  0  0  0
  2  9  1  0  0  0  0
  4  6  1  0  0  0  0
  6  7  2  0  0  0  0
  7  8  1  0  0  0  0
  8  9  2  0  0  0  0
 10 11  2  0  0  0  0
 10 15  1  0  0  0  0
 11 12  1  0  0  0  0
 12 13  2  0  0  0  0
 13  3  1  0  0  0  0
 13 14  1  0  0  0  0
 14 15  2  0  0  0  0
 16 17  2  0  0  0  0
 16 21  1  0  0  0  0
 17 18  1  0  0  0  0
 18 19  2  0  0  0  0
 19  5  1  0  0  0  0
 19 20  1  0  0  0  0
 20 21  2  0  0  0  0
 22  3  1  0  0  0  0
 23  3  1  0  0  0  0
 24  5  1  0  0  0  0
 25  5  1  0  0  0  0
M  END
>  <CHROM.1>
-131.90553106,-164.23942555,8.32527738,-0.66073249,26.54731006,0.63198740
0.23627632,-0.91365994,3.09831715,-1.21109836,2.29605180

>  <Name>
1q8n_lig

>  <RI>
0

>  <Rbt.Current_Directory>
/home/itssahil/PROJECTS/Mol_Feturizer/New_Systems/rnas/1q8n

>  <Rbt.Executable>
rbdock ($Id: //depot/dev/client3/rdock/2013.1/src/exe/rbdock.cxx#4 $)

>  <Rbt.Library>
libRbt.so (2013.1, Build901 2013/11/27)

>  <Rbt.Parameter_File>
/export/apps/rDock/src/rDock_2013.1_src/data/scripts/dock_solv.prm

>  <Rbt.Receptor>
prm/pocket_docking_5.prm

>  <SCORE>
-52.0184

>  <SCORE.INTER>
-52.7295

>  <SCORE.INTER.CONST>
1

>  <SCORE.INTER.POLAR>
0

>  <SCORE.INTER.ROT>
5

>  <SCORE.INTER.SOLV>
10.2085

>  <SCORE.INTER.VDW>
-45.4891

>  <SCORE.INTER.norm>
-2.10918

>  <SCORE.INTRA>
0.711026

>  <SCORE.INTRA.DIHEDRAL>
2.55441

>  <SCORE.INTRA.DIHEDRAL.0>
2.1627

>  <SCORE.INTRA.POLAR>
0

>  <SCORE.INTRA.POLAR.0>
0

>  <SCORE.INTRA.REPUL>
0

>  <SCORE.INTRA.REPUL.0>
0

>  <SCORE.INTRA.SOLV>
0.0327092

>  <SCORE.INTRA.SOLV.lig_0>
-5.95779

>  <SCORE.INTRA.VDW>
-0.582532

>  <SCORE.INTRA.VDW.0>
3.81702

>  <SCORE.INTRA.norm>
0.0284411

>  <SCORE.RESTR>
0

>  <SCORE.RESTR.CAVITY>
0

>  <SCORE.RESTR.norm>
0

>  <SCORE.SYSTEM>
0

>  <SCORE.SYSTEM.CONST>
0

>  <SCORE.SYSTEM.DIHEDRAL>
0

>  <SCORE.SYSTEM.SOLV>
0

>  <SCORE.SYSTEM.norm>
0

>  <SCORE.heavy>
25

>  <SCORE.norm>
-2.08074

>  <RMSD>
0.833

$$$$
1q8n_lig
 OpenBabel11021811403D
libRbt.so/2013.1/901 2013/11/27
 25 27  0  0  0  0  0  0  0  0999 V2000
    0.5815    0.7730   -1.4864 C   0  0  0  0  0  0  0  0  0  0  0  0
    0.5249    1.9426   -2.6241 C   0  0  0  0  0  0  0  0  0  0  0  0
   -1.1359    2.1509    4.0429 N   0  0  0  0  0  0  0  0  0  0  0  0
   -0.0294    1.7688   -3.8478 C   0  0  0  0  0  0  0  0  0  0  0  0
    2.5622   -4.6869   -2.9628 N   0  0  0  0  0  0  0  0  0  0  0  0
   -0.0550    2.8553   -4.8542 C   0  0  0  0  0  0  0  0  0  0  0  0
    0.4848    4.0594   -4.5562 C   0  0  0  0  0  0  0  0  0  0  0  0
    1.0749    4.2681   -3.2546 C   0  0  0  0  0  0  0  0  0  0  0  0
    1.0935    3.2801   -2.3565 C   0  0  0  0  0  0  0  0  0  0  0  0
    0.1118    1.1455    0.0304 C   0  0  0  0  0  0  0  0  0  0  0  0
    0.3775    0.3233    1.0667 C   0  0  0  0  0  0  0  0  0  0  0  0
   -0.0437    0.6473    2.4579 C   0  0  0  0  0  0  0  0  0  0  0  0
   -0.7147    1.8009    2.7186 C   0  0  0  0  0  0  0  0  0  0  0  0
   -1.0106    2.7109    1.5960 C   0  0  0  0  0  0  0  0  0  0  0  0
   -0.6258    2.4030    0.3495 C   0  0  0  0  0  0  0  0  0  0  0  0
    1.1007   -0.7618   -1.8382 C   0  0  0  0  0  0  0  0  0  0  0  0
    1.7028   -1.0569   -3.1842 C   0  0  0  0  0  0  0  0  0  0  0  0
    2.1489   -2.2685   -3.5269 C   0  0  0  0  0  0  0  0  0  0  0  0
    2.0707   -3.3940   -2.5883 C   0  0  0  0  0  0  0  0  0  0  0  0
    1.5331   -3.1845   -1.3687 C   0  0  0  0  0  0  0  0  0  0  0  0
    1.0299   -1.8265   -0.9717 C   0  0  0  0  0  0  0  0  0  0  0  0
   -1.8750    3.3451    4.3188 C   0  0  0  0  0  0  0  0  0  0  0  0
   -0.8223    1.2968    5.1463 C   0  0  0  0  0  0  0  0  0  0  0  0
    2.0168   -5.8713   -2.3644 C   0  0  0  0  0  0  0  0  0  0  0  0
    3.6079   -4.8350   -3.9497 C   0  0  0  0  0  0  0  0  0  0  0  0
  1  2  1  0  0  0  0
  1 10  1  0  0  0  0
  1 16  1  0  0  0  0
  2  4  2  0  0  0  0
  2  9  1  0  0  0  0
  4  6  1  0  0  0  0
  6  7  2  0  0  0  0
  7  8  1  0  0  0  0
  8  9  2  0  0  0  0
 10 11  2  0  0  0  0
 10 15  1  0  0  0  0
 11 12  1  0  0  0  0
 12 13  2  0  0  0  0
 13  3  1  0  0  0  0
 13 14  1  0  0  0  0
 14 15  2  0  0  0  0
 16 17  2  0  0  0  0
 16 21  1  0  0  0  0
 17 18  1  0  0  0  0
 18 19  2  0  0  0  0
 19  5  1  0  0  0  0
 19 20  1  0  0  0  0
 20 21  2  0  0  0  0
 22  3  1  0  0  0  0
 23  3  1  0  0  0  0
 24  5  1  0  0  0  0
 25  5  1  0  0  0  0
M  END
>  <CHROM.1>
-131.84864831,-166.71415245,8.00845650,-178.21218992,-153.20735739,0.63156167
0.22445286,-0.91020301,3.09426314,-1.21119522,2.29528688

>  <Name>
1q8n_lig

>  <RI>
0

>  <Rbt.Current_Directory>
/home/itssahil/PROJECTS/Mol_Feturizer/New_Systems/rnas/1q8n

>  <Rbt.Executable>
rbdock ($Id: //depot/dev/client3/rdock/2013.1/src/exe/rbdock.cxx#4 $)

>  <Rbt.Library>
libRbt.so (2013.1, Build901 2013/11/27)

>  <Rbt.Parameter_File>
/export/apps/rDock/src/rDock_2013.1_src/data/scripts/dock_solv.prm

>  <Rbt.Receptor>
prm/pocket_docking_4.prm

>  <SCORE>
-52.1146

>  <SCORE.INTER>
-52.9273

>  <SCORE.INTER.CONST>
1

>  <SCORE.INTER.POLAR>
0

>  <SCORE.INTER.ROT>
5

>  <SCORE.INTER.SOLV>
10.1705

>  <SCORE.INTER.VDW>
-45.6084

>  <SCORE.INTER.norm>
-2.11709

>  <SCORE.INTRA>
0.812701

>  <SCORE.INTRA.DIHEDRAL>
2.60913

>  <SCORE.INTRA.DIHEDRAL.0>
2.1627

>  <SCORE.INTRA.POLAR>
0

>  <SCORE.INTRA.POLAR.0>
0

>  <SCORE.INTRA.REPUL>
0

>  <SCORE.INTRA.REPUL.0>
0

>  <SCORE.INTRA.SOLV>
0.0343106

>  <SCORE.INTRA.SOLV.lig_0>
-5.95779

>  <SCORE.INTRA.VDW>
-0.509019

>  <SCORE.INTRA.VDW.0>
3.81702

>  <SCORE.INTRA.norm>
0.0325081

>  <SCORE.RESTR>
0

>  <SCORE.RESTR.CAVITY>
0

>  <SCORE.RESTR.norm>
0

>  <SCORE.SYSTEM>
0

>  <SCORE.SYSTEM.CONST>
0

>  <SCORE.SYSTEM.DIHEDRAL>
0

>  <SCORE.SYSTEM.SOLV>
0

>  <SCORE.SYSTEM.norm>
0

>  <SCORE.heavy>
25

>  <SCORE.norm>
-2.08458

>  <RMSD>
0.850

$$$$
1q8n_lig
 OpenBabel11021811403D
libRbt.so/2013.1/901 2013/11/27
 25 27  0  0  0  0  0  0  0  0999 V2000
    0.7476    0.6290   -1.1265 C   0  0  0  0  0  0  0  0  0  0  0  0
    0.6623    1.8670   -2.1874 C   0  0  0  0  0  0  0  0  0  0  0  0
    2.6657   -4.6428   -3.1141 N   0  0  0  0  0  0  0  0  0  0  0  0
    0.9557    3.1495   -1.8647 C   0  0  0  0  0  0  0  0  0  0  0  0
   -0.9450    1.4858    4.5580 N   0  0  0  0  0  0  0  0  0  0  0  0
    0.8598    4.2452   -2.8568 C   0  0  0  0  0  0  0  0  0  0  0  0
    0.4715    3.9719   -4.1235 C   0  0  0  0  0  0  0  0  0  0  0  0
    0.1605    2.6101   -4.4905 C   0  0  0  0  0  0  0  0  0  0  0  0
    0.2490    1.6313   -3.5866 C   0  0  0  0  0  0  0  0  0  0  0  0
    1.2724   -0.8179   -1.6663 C   0  0  0  0  0  0  0  0  0  0  0  0
    1.0442   -1.9495   -0.9680 C   0  0  0  0  0  0  0  0  0  0  0  0
    1.5159   -3.2790   -1.4455 C   0  0  0  0  0  0  0  0  0  0  0  0
    2.1965   -3.3828   -2.6182 C   0  0  0  0  0  0  0  0  0  0  0  0
    2.4517   -2.1543   -3.3939 C   0  0  0  0  0  0  0  0  0  0  0  0
    2.0216   -0.9655   -2.9486 C   0  0  0  0  0  0  0  0  0  0  0  0
    0.3162    0.8117    0.4638 C   0  0  0  0  0  0  0  0  0  0  0  0
   -0.4100    2.0530    0.9034 C   0  0  0  0  0  0  0  0  0  0  0  0
   -0.7938    2.2573    2.1665 C   0  0  0  0  0  0  0  0  0  0  0  0
   -0.5191    1.2610    3.2084 C   0  0  0  0  0  0  0  0  0  0  0  0
    0.1356    0.1313    2.8683 C   0  0  0  0  0  0  0  0  0  0  0  0
    0.5705   -0.1100    1.4514 C   0  0  0  0  0  0  0  0  0  0  0  0
    2.0386   -5.8817   -2.7670 C   0  0  0  0  0  0  0  0  0  0  0  0
    3.7964   -4.6955   -3.9882 C   0  0  0  0  0  0  0  0  0  0  0  0
   -0.7612    0.4708    5.5551 C   0  0  0  0  0  0  0  0  0  0  0  0
   -1.5611    2.7325    4.9524 C   0  0  0  0  0  0  0  0  0  0  0  0
  1  2  1  0  0  0  0
  1 10  1  0  0  0  0
  1 16  1  0  0  0  0
  2  4  2  0  0  0  0
  2  9  1  0  0  0  0
  4  6  1  0  0  0  0
  6  7  2  0  0  0  0
  7  8  1  0  0  0  0
  8  9  2  0  0  0  0
 10 11  2  0  0  0  0
 10 15  1  0  0  0  0
 11 12  1  0  0  0  0
 12 13  2  0  0  0  0
 13  3  1  0  0  0  0
 13 14  1  0  0  0  0
 14 15  2  0  0  0  0
 16 17  2  0  0  0  0
 16 21  1  0  0  0  0
 17 18  1  0  0  0  0
 18 19  2  0  0  0  0
 19  5  1  0  0  0  0
 19 20  1  0  0  0  0
 20 21  2  0  0  0  0
 22  3  1  0  0  0  0
 23  3  1  0  0  0  0
 24  5  1  0  0  0  0
 25  5  1  0  0  0  0
M  END
>  <CHROM.1>
-143.12043632,-162.40822249,11.64273951,25.99827625,175.52998615,0.76866879
0.00264466,-0.63469851,2.98355120,-1.21599420,2.31715318

>  <Name>
1q8n_lig

>  <RI>
0

>  <Rbt.Current_Directory>
/home/itssahil/PROJECTS/Mol_Feturizer/New_Systems/rnas/1q8n

>  <Rbt.Executable>
rbdock ($Id: //depot/dev/client3/rdock/2013.1/src/exe/rbdock.cxx#4 $)

>  <Rbt.Library>
libRbt.so (2013.1, Build901 2013/11/27)

>  <Rbt.Parameter_File>
/export/apps/rDock/src/rDock_2013.1_src/data/scripts/dock_solv.prm

>  <Rbt.Receptor>
prm/pocket_docking_5.prm

>  <SCORE>
-50.1052

>  <SCORE.INTER>
-51.0023

>  <SCORE.INTER.CONST>
1

>  <SCORE.INTER.POLAR>
0

>  <SCORE.INTER.ROT>
5

>  <SCORE.INTER.SOLV>
9.27072

>  <SCORE.INTER.VDW>
-44.0251

>  <SCORE.INTER.norm>
-2.04009

>  <SCORE.INTRA>
0.897091

>  <SCORE.INTRA.DIHEDRAL>
2.53564

>  <SCORE.INTRA.DIHEDRAL.0>
2.1627

>  <SCORE.INTRA.POLAR>
0

>  <SCORE.INTRA.POLAR.0>
0

>  <SCORE.INTRA.REPUL>
0

>  <SCORE.INTRA.REPUL.0>
0

>  <SCORE.INTRA.SOLV>
0.0445737

>  <SCORE.INTRA.SOLV.lig_0>
-5.95779

>  <SCORE.INTRA.VDW>
-0.393014

>  <SCORE.INTRA.VDW.0>
3.81702

>  <SCORE.INTRA.norm>
0.0358837

>  <SCORE.RESTR>
0

>  <SCORE.RESTR.CAVITY>
0

>  <SCORE.RESTR.norm>
0

>  <SCORE.SYSTEM>
0

>  <SCORE.SYSTEM.CONST>
0

>  <SCORE.SYSTEM.DIHEDRAL>
0

>  <SCORE.SYSTEM.SOLV>
0

>  <SCORE.SYSTEM.norm>
0

>  <SCORE.heavy>
25

>  <SCORE.norm>
-2.00421

>  <RMSD>
1.337

$$$$
1q8n_lig
 OpenBabel11021811413D
libRbt.so/2013.1/901 2013/11/27
 25 27  0  0  0  0  0  0  0  0999 V2000
    0.7143    0.4230   -1.4201 C   0  0  0  0  0  0  0  0  0  0  0  0
    0.5758    1.5828   -2.5608 C   0  0  0  0  0  0  0  0  0  0  0  0
    2.5773   -4.9700   -3.1131 N   0  0  0  0  0  0  0  0  0  0  0  0
    1.1963    2.7846   -2.4841 C   0  0  0  0  0  0  0  0  0  0  0  0
   -0.4457    1.3029    4.3931 N   0  0  0  0  0  0  0  0  0  0  0  0
    1.0394    3.8124   -3.5390 C   0  0  0  0  0  0  0  0  0  0  0  0
    0.2596    3.5571   -4.6145 C   0  0  0  0  0  0  0  0  0  0  0  0
   -0.4057    2.2794   -4.7194 C   0  0  0  0  0  0  0  0  0  0  0  0
   -0.2578    1.3617   -3.7608 C   0  0  0  0  0  0  0  0  0  0  0  0
    1.2249   -1.0565   -1.8789 C   0  0  0  0  0  0  0  0  0  0  0  0
    1.1567   -2.1111   -1.0401 C   0  0  0  0  0  0  0  0  0  0  0  0
    1.6181   -3.4689   -1.4419 C   0  0  0  0  0  0  0  0  0  0  0  0
    2.1245   -3.6791   -2.6864 C   0  0  0  0  0  0  0  0  0  0  0  0
    2.2032   -2.5359   -3.6154 C   0  0  0  0  0  0  0  0  0  0  0  0
    1.7851   -1.3200   -3.2368 C   0  0  0  0  0  0  0  0  0  0  0  0
    0.3502    0.7160    0.1706 C   0  0  0  0  0  0  0  0  0  0  0  0
    0.8357   -0.2292    1.2348 C   0  0  0  0  0  0  0  0  0  0  0  0
    0.5853   -0.0455    2.5340 C   0  0  0  0  0  0  0  0  0  0  0  0
   -0.1924    1.1101    2.9960 C   0  0  0  0  0  0  0  0  0  0  0  0
   -0.6571    1.9860    2.0809 C   0  0  0  0  0  0  0  0  0  0  0  0
   -0.3806    1.7908    0.6179 C   0  0  0  0  0  0  0  0  0  0  0  0
    1.9428   -6.1807   -2.6888 C   0  0  0  0  0  0  0  0  0  0  0  0
    3.6984   -5.0837   -3.9937 C   0  0  0  0  0  0  0  0  0  0  0  0
   -1.3493    2.3274    4.8317 C   0  0  0  0  0  0  0  0  0  0  0  0
    0.1909    0.4747    5.3923 C   0  0  0  0  0  0  0  0  0  0  0  0
  1  2  1  0  0  0  0
  1 10  1  0  0  0  0
  1 16  1  0  0  0  0
  2  4  2  0  0  0  0
  2  9  1  0  0  0  0
  4  6  1  0  0  0  0
  6  7  2  0  0  0  0
  7  8  1  0  0  0  0
  8  9  2  0  0  0  0
 10 11  2  0  0  0  0
 10 15  1  0  0  0  0
 11 12  1  0  0  0  0
 12 13  2  0  0  0  0
 13  3  1  0  0  0  0
 13 14  1  0  0  0  0
 14 15  2  0  0  0  0
 16 17  2  0  0  0  0
 16 21  1  0  0  0  0
 17 18  1  0  0  0  0
 18 19  2  0  0  0  0
 19  5  1  0  0  0  0
 19 20  1  0  0  0  0
 20 21  2  0  0  0  0
 22  3  1  0  0  0  0
 23  3  1  0  0  0  0
 24  5  1  0  0  0  0
 25  5  1  0  0  0  0
M  END
>  <CHROM.1>
-124.47207651,-169.18131629,-163.29609563,34.94202993,-171.73948909,0.82452113
-0.26227259,-0.85054906,0.41813168,1.24515264,-1.09388946

>  <Name>
1q8n_lig

>  <RI>
0

>  <Rbt.Current_Directory>
/home/itssahil/PROJECTS/Mol_Feturizer/New_Systems/rnas/1q8n

>  <Rbt.Executable>
rbdock ($Id: //depot/dev/client3/rdock/2013.1/src/exe/rbdock.cxx#4 $)

>  <Rbt.Library>
libRbt.so (2013.1, Build901 2013/11/27)

>  <Rbt.Parameter_File>
/export/apps/rDock/src/rDock_2013.1_src/data/scripts/dock_solv.prm

>  <Rbt.Receptor>
prm/pocket_docking_7.prm

>  <SCORE>
-49.4562

>  <SCORE.INTER>
-50.7555

>  <SCORE.INTER.CONST>
1

>  <SCORE.INTER.POLAR>
0

>  <SCORE.INTER.ROT>
5

>  <SCORE.INTER.SOLV>
9.13891

>  <SCORE.INTER.VDW>
-43.8167

>  <SCORE.INTER.norm>
-2.03022

>  <SCORE.INTRA>
1.29939

>  <SCORE.INTRA.DIHEDRAL>
4.46252

>  <SCORE.INTRA.DIHEDRAL.0>
2.1627

>  <SCORE.INTRA.POLAR>
0

>  <SCORE.INTRA.POLAR.0>
0

>  <SCORE.INTRA.REPUL>
0

>  <SCORE.INTRA.REPUL.0>
0

>  <SCORE.INTRA.SOLV>
0.0268472

>  <SCORE.INTRA.SOLV.lig_0>
-5.95779

>  <SCORE.INTRA.VDW>
-0.945294

>  <SCORE.INTRA.VDW.0>
3.81702

>  <SCORE.INTRA.norm>
0.0519756

>  <SCORE.RESTR>
0

>  <SCORE.RESTR.CAVITY>
0

>  <SCORE.RESTR.norm>
0

>  <SCORE.SYSTEM>
0

>  <SCORE.SYSTEM.CONST>
0

>  <SCORE.SYSTEM.DIHEDRAL>
0

>  <SCORE.SYSTEM.SOLV>
0

>  <SCORE.SYSTEM.norm>
0

>  <SCORE.heavy>
25

>  <SCORE.norm>
-1.97825

>  <RMSD>
1.388

$$$$
1q8n_lig
 OpenBabel11021811403D
libRbt.so/2013.1/901 2013/11/27
 25 27  0  0  0  0  0  0  0  0999 V2000
    0.7825    0.5160   -1.2153 C   0  0  0  0  0  0  0  0  0  0  0  0
    0.6609    1.7595   -2.2661 C   0  0  0  0  0  0  0  0  0  0  0  0
    2.7486   -4.7123   -3.2698 N   0  0  0  0  0  0  0  0  0  0  0  0
    1.0107    3.0323   -1.9617 C   0  0  0  0  0  0  0  0  0  0  0  0
   -0.8267    1.3111    4.5023 N   0  0  0  0  0  0  0  0  0  0  0  0
    0.8792    4.1336   -2.9434 C   0  0  0  0  0  0  0  0  0  0  0  0
    0.3997    3.8756   -4.1817 C   0  0  0  0  0  0  0  0  0  0  0  0
    0.0272    2.5242   -4.5293 C   0  0  0  0  0  0  0  0  0  0  0  0
    0.1486    1.5402   -3.6349 C   0  0  0  0  0  0  0  0  0  0  0  0
    1.3203   -0.9191   -1.7735 C   0  0  0  0  0  0  0  0  0  0  0  0
    1.0741   -2.0657   -1.1065 C   0  0  0  0  0  0  0  0  0  0  0  0
    1.5573   -3.3847   -1.6012 C   0  0  0  0  0  0  0  0  0  0  0  0
    2.2674   -3.4631   -2.7583 C   0  0  0  0  0  0  0  0  0  0  0  0
    2.5425   -2.2180   -3.4998 C   0  0  0  0  0  0  0  0  0  0  0  0
    2.1017   -1.0389   -3.0393 C   0  0  0  0  0  0  0  0  0  0  0  0
    0.3745    0.6815    0.3831 C   0  0  0  0  0  0  0  0  0  0  0  0
   -0.3472    1.9169    0.8462 C   0  0  0  0  0  0  0  0  0  0  0  0
   -0.7125    2.1074    2.1169 C   0  0  0  0  0  0  0  0  0  0  0  0
   -0.4206    1.1010    3.1443 C   0  0  0  0  0  0  0  0  0  0  0  0
    0.2310   -0.0239    2.7828 C   0  0  0  0  0  0  0  0  0  0  0  0
    0.6451   -0.2498    1.3572 C   0  0  0  0  0  0  0  0  0  0  0  0
    2.1290   -5.9607   -2.9439 C   0  0  0  0  0  0  0  0  0  0  0  0
    3.8841   -4.7438   -4.1387 C   0  0  0  0  0  0  0  0  0  0  0  0
   -1.3677    2.5758    4.9100 C   0  0  0  0  0  0  0  0  0  0  0  0
   -0.7100    0.2631    5.4910 C   0  0  0  0  0  0  0  0  0  0  0  0
  1  2  1  0  0  0  0
  1 10  1  0  0  0  0
  1 16  1  0  0  0  0
  2  4  2  0  0  0  0
  2  9  1  0  0  0  0
  4  6  1  0  0  0  0
  6  7  2  0  0  0  0
  7  8  1  0  0  0  0
  8  9  2  0  0  0  0
 10 11  2  0  0  0  0
 10 15  1  0  0  0  0
 11 12  1  0  0  0  0
 12 13  2  0  0  0  0
 13  3  1  0  0  0  0
 13 14  1  0  0  0  0
 14 15  2  0  0  0  0
 16 17  2  0  0  0  0
 16 21  1  0  0  0  0
 17 18  1  0  0  0  0
 18 19  2  0  0  0  0
 19  5  1  0  0  0  0
 19 20  1  0  0  0  0
 20 21  2  0  0  0  0
 22  3  1  0  0  0  0
 23  3  1  0  0  0  0
 24  5  1  0  0  0  0
 25  5  1  0  0  0  0
M  END
>  <CHROM.1>
-139.30899630,-159.70225392,10.84233774,24.67568235,-8.05083870,0.82056993
-0.11238995,-0.72758189,2.92723215,-1.21611976,2.27069359

>  <Name>
1q8n_lig

>  <RI>
0

>  <Rbt.Current_Directory>
/home/itssahil/PROJECTS/Mol_Feturizer/New_Systems/rnas/1q8n

>  <Rbt.Executable>
rbdock ($Id: //depot/dev/client3/rdock/2013.1/src/exe/rbdock.cxx#4 $)

>  <Rbt.Library>
libRbt.so (2013.1, Build901 2013/11/27)

>  <Rbt.Parameter_File>
/export/apps/rDock/src/rDock_2013.1_src/data/scripts/dock_solv.prm

>  <Rbt.Receptor>
prm/blind_docking_80.prm

>  <SCORE>
-50.0631

>  <SCORE.INTER>
-50.7943

>  <SCORE.INTER.CONST>
1

>  <SCORE.INTER.POLAR>
0

>  <SCORE.INTER.ROT>
5

>  <SCORE.INTER.SOLV>
9.16946

>  <SCORE.INTER.VDW>
-43.8527

>  <SCORE.INTER.norm>
-2.03177

>  <SCORE.INTRA>
0.731234

>  <SCORE.INTRA.DIHEDRAL>
2.48074

>  <SCORE.INTRA.DIHEDRAL.0>
2.1627

>  <SCORE.INTRA.POLAR>
0

>  <SCORE.INTRA.POLAR.0>
0

>  <SCORE.INTRA.REPUL>
0

>  <SCORE.INTRA.REPUL.0>
0

>  <SCORE.INTRA.SOLV>
0.0381147

>  <SCORE.INTRA.SOLV.lig_0>
-5.95779

>  <SCORE.INTRA.VDW>
-0.528195

>  <SCORE.INTRA.VDW.0>
3.81702

>  <SCORE.INTRA.norm>
0.0292494

>  <SCORE.RESTR>
0

>  <SCORE.RESTR.CAVITY>
0

>  <SCORE.RESTR.norm>
0

>  <SCORE.SYSTEM>
0

>  <SCORE.SYSTEM.CONST>
0

>  <SCORE.SYSTEM.DIHEDRAL>
0

>  <SCORE.SYSTEM.SOLV>
0

>  <SCORE.SYSTEM.norm>
0

>  <SCORE.heavy>
25

>  <SCORE.norm>
-2.00252

>  <RMSD>
1.397

$$$$
1q8n_lig
 OpenBabel11021811403D
libRbt.so/2013.1/901 2013/11/27
 25 27  0  0  0  0  0  0  0  0999 V2000
    0.6766    0.9933   -0.9131 C   0  0  0  0  0  0  0  0  0  0  0  0
    0.7413    2.2213   -1.9870 C   0  0  0  0  0  0  0  0  0  0  0  0
    2.4278   -4.4030   -2.7117 N   0  0  0  0  0  0  0  0  0  0  0  0
    0.7076    2.0429   -3.3294 C   0  0  0  0  0  0  0  0  0  0  0  0
   -1.1202    1.6231    4.7692 N   0  0  0  0  0  0  0  0  0  0  0  0
    0.7746    3.1849   -4.2702 C   0  0  0  0  0  0  0  0  0  0  0  0
    0.8707    4.4459   -3.7898 C   0  0  0  0  0  0  0  0  0  0  0  0
    0.9014    4.6590   -2.3616 C   0  0  0  0  0  0  0  0  0  0  0  0
    0.8422    3.6210   -1.5237 C   0  0  0  0  0  0  0  0  0  0  0  0
    1.1559   -0.4874   -1.4009 C   0  0  0  0  0  0  0  0  0  0  0  0
    0.9524   -1.5770   -0.6318 C   0  0  0  0  0  0  0  0  0  0  0  0
    1.3833   -2.9364   -1.0611 C   0  0  0  0  0  0  0  0  0  0  0  0
    1.9996   -3.1120   -2.2605 C   0  0  0  0  0  0  0  0  0  0  0  0
    2.2270   -1.9301   -3.1134 C   0  0  0  0  0  0  0  0  0  0  0  0
    1.8345   -0.7134   -2.7108 C   0  0  0  0  0  0  0  0  0  0  0  0
    0.1400    1.2193    0.6393 C   0  0  0  0  0  0  0  0  0  0  0  0
    0.4730    0.2067    1.7000 C   0  0  0  0  0  0  0  0  0  0  0  0
    0.0798    0.3341    2.9703 C   0  0  0  0  0  0  0  0  0  0  0  0
   -0.7132    1.4912    3.4016 C   0  0  0  0  0  0  0  0  0  0  0  0
   -1.0446    2.4267    2.4875 C   0  0  0  0  0  0  0  0  0  0  0  0
   -0.6070    2.2949    1.0571 C   0  0  0  0  0  0  0  0  0  0  0  0
    3.3001   -4.5693   -3.8342 C   0  0  0  0  0  0  0  0  0  0  0  0
    1.9857   -5.5836   -2.0365 C   0  0  0  0  0  0  0  0  0  0  0  0
   -1.6751    2.8577    5.2448 C   0  0  0  0  0  0  0  0  0  0  0  0
   -0.9908    0.5245    5.6997 C   0  0  0  0  0  0  0  0  0  0  0  0
  1  2  1  0  0  0  0
  1 10  1  0  0  0  0
  1 16  1  0  0  0  0
  2  4  2  0  0  0  0
  2  9  1  0  0  0  0
  4  6  1  0  0  0  0
  6  7  2  0  0  0  0
  7  8  1  0  0  0  0
  8  9  2  0  0  0  0
 10 11  2  0  0  0  0
 10 15  1  0  0  0  0
 11 12  1  0  0  0  0
 12 13  2  0  0  0  0
 13  3  1  0  0  0  0
 13 14  1  0  0  0  0
 14 15  2  0  0  0  0
 16 17  2  0  0  0  0
 16 21  1  0  0  0  0
 17 18  1  0  0  0  0
 18 19  2  0  0  0  0
 19  5  1  0  0  0  0
 19 20  1  0  0  0  0
 20 21  2  0  0  0  0
 22  3  1  0  0  0  0
 23  3  1  0  0  0  0
 24  5  1  0  0  0  0
 25  5  1  0  0  0  0
M  END
>  <CHROM.1>
24.03901261,-170.51499083,-161.60154372,-167.48687416,168.43508372,0.69219060
0.29435414,-0.35059817,-0.03742300,1.21515429,-0.61712395

>  <Name>
1q8n_lig

>  <RI>
0

>  <Rbt.Current_Directory>
/home/itssahil/PROJECTS/Mol_Feturizer/New_Systems/rnas/1q8n

>  <Rbt.Executable>
rbdock ($Id: //depot/dev/client3/rdock/2013.1/src/exe/rbdock.cxx#4 $)

>  <Rbt.Library>
libRbt.so (2013.1, Build901 2013/11/27)

>  <Rbt.Parameter_File>
/export/apps/rDock/src/rDock_2013.1_src/data/scripts/dock_solv.prm

>  <Rbt.Receptor>
prm/pocket_docking_3.prm

>  <SCORE>
-48.2007

>  <SCORE.INTER>
-49.3664

>  <SCORE.INTER.CONST>
1

>  <SCORE.INTER.POLAR>
0

>  <SCORE.INTER.ROT>
5

>  <SCORE.INTER.SOLV>
9.75355

>  <SCORE.INTER.VDW>
-43.0955

>  <SCORE.INTER.norm>
-1.97466

>  <SCORE.INTRA>
1.16567

>  <SCORE.INTRA.DIHEDRAL>
1.11554

>  <SCORE.INTRA.DIHEDRAL.0>
2.1627

>  <SCORE.INTRA.POLAR>
0

>  <SCORE.INTRA.POLAR.0>
0

>  <SCORE.INTRA.REPUL>
0

>  <SCORE.INTRA.REPUL.0>
0

>  <SCORE.INTRA.SOLV>
0.0588089

>  <SCORE.INTRA.SOLV.lig_0>
-5.95779

>  <SCORE.INTRA.VDW>
0.578493

>  <SCORE.INTRA.VDW.0>
3.81702

>  <SCORE.INTRA.norm>
0.0466267

>  <SCORE.RESTR>
0

>  <SCORE.RESTR.CAVITY>
0

>  <SCORE.RESTR.norm>
0

>  <SCORE.SYSTEM>
0

>  <SCORE.SYSTEM.CONST>
0

>  <SCORE.SYSTEM.DIHEDRAL>
0

>  <SCORE.SYSTEM.SOLV>
0

>  <SCORE.SYSTEM.norm>
0

>  <SCORE.heavy>
25

>  <SCORE.norm>
-1.92803

>  <RMSD>
1.406

$$$$
1q8n_lig
 OpenBabel11021811403D
libRbt.so/2013.1/901 2013/11/27
 25 27  0  0  0  0  0  0  0  0999 V2000
    0.7802    0.8363   -0.7135 C   0  0  0  0  0  0  0  0  0  0  0  0
    0.8374    2.1550   -1.6743 C   0  0  0  0  0  0  0  0  0  0  0  0
   -1.1270    1.5219    4.8824 N   0  0  0  0  0  0  0  0  0  0  0  0
    0.7565    3.4240   -1.2075 C   0  0  0  0  0  0  0  0  0  0  0  0
    2.5309   -4.4687   -2.8826 N   0  0  0  0  0  0  0  0  0  0  0  0
    0.8067    4.5938   -2.1147 C   0  0  0  0  0  0  0  0  0  0  0  0
    0.9381    4.4045   -3.4477 C   0  0  0  0  0  0  0  0  0  0  0  0
    1.0329    3.0598   -3.9659 C   0  0  0  0  0  0  0  0  0  0  0  0
    0.9845    2.0132   -3.1380 C   0  0  0  0  0  0  0  0  0  0  0  0
    0.2588    1.0190    0.8211 C   0  0  0  0  0  0  0  0  0  0  0  0
    0.5744    0.1222    1.7784 C   0  0  0  0  0  0  0  0  0  0  0  0
    0.1072    0.2730    3.1845 C   0  0  0  0  0  0  0  0  0  0  0  0
   -0.6589    1.3386    3.5405 C   0  0  0  0  0  0  0  0  0  0  0  0
   -1.0102    2.3287    2.5050 C   0  0  0  0  0  0  0  0  0  0  0  0
   -0.5828    2.1767    1.2437 C   0  0  0  0  0  0  0  0  0  0  0  0
    1.2363   -0.6613   -1.2594 C   0  0  0  0  0  0  0  0  0  0  0  0
    1.7954   -0.8125   -2.6472 C   0  0  0  0  0  0  0  0  0  0  0  0
    2.1900   -1.9882   -3.1437 C   0  0  0  0  0  0  0  0  0  0  0  0
    2.0945   -3.2147   -2.3436 C   0  0  0  0  0  0  0  0  0  0  0  0
    1.5939   -3.1354   -1.0932 C   0  0  0  0  0  0  0  0  0  0  0  0
    1.1485   -1.8192   -0.5239 C   0  0  0  0  0  0  0  0  0  0  0  0
   -1.6893    2.7585    5.3331 C   0  0  0  0  0  0  0  0  0  0  0  0
   -1.0435    0.4501    5.8256 C   0  0  0  0  0  0  0  0  0  0  0  0
    3.4871   -4.5052   -3.9516 C   0  0  0  0  0  0  0  0  0  0  0  0
    2.0300   -5.7224   -2.3660 C   0  0  0  0  0  0  0  0  0  0  0  0
  1  2  1  0  0  0  0
  1 10  1  0  0  0  0
  1 16  1  0  0  0  0
  2  4  2  0  0  0  0
  2  9  1  0  0  0  0
  4  6  1  0  0  0  0
  6  7  2  0  0  0  0
  7  8  1  0  0  0  0
  8  9  2  0  0  0  0
 10 11  2  0  0  0  0
 10 15  1  0  0  0  0
 11 12  1  0  0  0  0
 12 13  2  0  0  0  0
 13  3  1  0  0  0  0
 13 14  1  0  0  0  0
 14 15  2  0  0  0  0
 16 17  2  0  0  0  0
 16 21  1  0  0  0  0
 17 18  1  0  0  0  0
 18 19  2  0  0  0  0
 19  5  1  0  0  0  0
 19 20  1  0  0  0  0
 20 21  2  0  0  0  0
 22  3  1  0  0  0  0
 23  3  1  0  0  0  0
 24  5  1  0  0  0  0
 25  5  1  0  0  0  0
M  END
>  <CHROM.1>
14.71078637,-158.48876310,3.65973265,166.72823224,23.08981964,0.76100951
0.18862036,-0.25157836,-3.06010702,-1.21056919,2.57134639

>  <Name>
1q8n_lig

>  <RI>
0

>  <Rbt.Current_Directory>
/home/itssahil/PROJECTS/Mol_Feturizer/New_Systems/rnas/1q8n

>  <Rbt.Executable>
rbdock ($Id: //depot/dev/client3/rdock/2013.1/src/exe/rbdock.cxx#4 $)

>  <Rbt.Library>
libRbt.so (2013.1, Build901 2013/11/27)

>  <Rbt.Parameter_File>
/export/apps/rDock/src/rDock_2013.1_src/data/scripts/dock_solv.prm

>  <Rbt.Receptor>
prm/pocket_docking_3.prm

>  <SCORE>
-48.6941

>  <SCORE.INTER>
-50.1917

>  <SCORE.INTER.CONST>
1

>  <SCORE.INTER.POLAR>
0

>  <SCORE.INTER.ROT>
5

>  <SCORE.INTER.SOLV>
9.73094

>  <SCORE.INTER.VDW>
-43.6381

>  <SCORE.INTER.norm>
-2.00767

>  <SCORE.INTRA>
1.49043

>  <SCORE.INTRA.DIHEDRAL>
2.63932

>  <SCORE.INTRA.DIHEDRAL.0>
2.1627

>  <SCORE.INTRA.POLAR>
0

>  <SCORE.INTRA.POLAR.0>
0

>  <SCORE.INTRA.REPUL>
0

>  <SCORE.INTRA.REPUL.0>
0

>  <SCORE.INTRA.SOLV>
0.065402

>  <SCORE.INTRA.SOLV.lig_0>
-5.95779

>  <SCORE.INTRA.VDW>
0.138075

>  <SCORE.INTRA.VDW.0>
3.81702

>  <SCORE.INTRA.norm>
0.0596174

>  <SCORE.RESTR>
0.00722963

>  <SCORE.RESTR.CAVITY>
0.00722963

>  <SCORE.RESTR.norm>
0.000289185

>  <SCORE.SYSTEM>
0

>  <SCORE.SYSTEM.CONST>
0

>  <SCORE.SYSTEM.DIHEDRAL>
0

>  <SCORE.SYSTEM.SOLV>
0

>  <SCORE.SYSTEM.norm>
0

>  <SCORE.heavy>
25

>  <SCORE.norm>
-1.94776

>  <RMSD>
1.593

$$$$
1q8n_lig
 OpenBabel11021811403D
libRbt.so/2013.1/901 2013/11/27
 25 27  0  0  0  0  0  0  0  0999 V2000
    0.8081    0.5722   -0.8759 C   0  0  0  0  0  0  0  0  0  0  0  0
    0.7514    1.8772   -1.8553 C   0  0  0  0  0  0  0  0  0  0  0  0
    2.6944   -4.5829   -3.1757 N   0  0  0  0  0  0  0  0  0  0  0  0
    0.8547    3.1519   -1.4089 C   0  0  0  0  0  0  0  0  0  0  0  0
   -0.9651    1.0718    4.8267 N   0  0  0  0  0  0  0  0  0  0  0  0
    0.7924    4.3091   -2.3313 C   0  0  0  0  0  0  0  0  0  0  0  0
    0.6298    4.1021   -3.6582 C   0  0  0  0  0  0  0  0  0  0  0  0
    0.5243    2.7505   -4.1562 C   0  0  0  0  0  0  0  0  0  0  0  0
    0.5800    1.7155   -3.3143 C   0  0  0  0  0  0  0  0  0  0  0  0
    1.3244   -0.8429   -1.5013 C   0  0  0  0  0  0  0  0  0  0  0  0
    1.1319   -2.0078   -0.8484 C   0  0  0  0  0  0  0  0  0  0  0  0
    1.5965   -3.3090   -1.4042 C   0  0  0  0  0  0  0  0  0  0  0  0
    2.2336   -3.3518   -2.6049 C   0  0  0  0  0  0  0  0  0  0  0  0
    2.4493   -2.0863   -3.3315 C   0  0  0  0  0  0  0  0  0  0  0  0
    2.0263   -0.9237   -2.8158 C   0  0  0  0  0  0  0  0  0  0  0  0
    0.3566    0.6568    0.7171 C   0  0  0  0  0  0  0  0  0  0  0  0
   -0.4245    1.8434    1.2106 C   0  0  0  0  0  0  0  0  0  0  0  0
   -0.8268    1.9680    2.4782 C   0  0  0  0  0  0  0  0  0  0  0  0
   -0.5192    0.9328    3.4720 C   0  0  0  0  0  0  0  0  0  0  0  0
    0.1850   -0.1504    3.0827 C   0  0  0  0  0  0  0  0  0  0  0  0
    0.6411   -0.3020    1.6601 C   0  0  0  0  0  0  0  0  0  0  0  0
    2.1258   -5.8482   -2.8234 C   0  0  0  0  0  0  0  0  0  0  0  0
    3.7564   -4.5781   -4.1335 C   0  0  0  0  0  0  0  0  0  0  0  0
   -0.9962   -0.0659    5.7002 C   0  0  0  0  0  0  0  0  0  0  0  0
   -1.3871    2.3514    5.3501 C   0  0  0  0  0  0  0  0  0  0  0  0
  1  2  1  0  0  0  0
  1 10  1  0  0  0  0
  1 16  1  0  0  0  0
  2  4  2  0  0  0  0
  2  9  1  0  0  0  0
  4  6  1  0  0  0  0
  6  7  2  0  0  0  0
  7  8  1  0  0  0  0
  8  9  2  0  0  0  0
 10 11  2  0  0  0  0
 10 15  1  0  0  0  0
 11 12  1  0  0  0  0
 12 13  2  0  0  0  0
 13  3  1  0  0  0  0
 13 14  1  0  0  0  0
 14 15  2  0  0  0  0
 16 17  2  0  0  0  0
 16 21  1  0  0  0  0
 17 18  1  0  0  0  0
 18 19  2  0  0  0  0
 19  5  1  0  0  0  0
 19 20  1  0  0  0  0
 20 21  2  0  0  0  0
 22  3  1  0  0  0  0
 23  3  1  0  0  0  0
 24  5  1  0  0  0  0
 25  5  1  0  0  0  0
M  END
>  <CHROM.1>
-153.48642968,-165.72692762,14.81385522,23.46523643,162.89408987,0.81527905
-0.08733958,-0.42722459,3.03834034,-1.21298043,2.43731654

>  <Name>
1q8n_lig

>  <RI>
0

>  <Rbt.Current_Directory>
/home/itssahil/PROJECTS/Mol_Feturizer/New_Systems/rnas/1q8n

>  <Rbt.Executable>
rbdock ($Id: //depot/dev/client3/rdock/2013.1/src/exe/rbdock.cxx#4 $)

>  <Rbt.Library>
libRbt.so (2013.1, Build901 2013/11/27)

>  <Rbt.Parameter_File>
/export/apps/rDock/src/rDock_2013.1_src/data/scripts/dock_solv.prm

>  <Rbt.Receptor>
prm/blind_docking_20.prm

>  <SCORE>
-48.4362

>  <SCORE.INTER>
-49.6641

>  <SCORE.INTER.CONST>
1

>  <SCORE.INTER.POLAR>
0

>  <SCORE.INTER.ROT>
5

>  <SCORE.INTER.SOLV>
9.04357

>  <SCORE.INTER.VDW>
-43.0573

>  <SCORE.INTER.norm>
-1.98657

>  <SCORE.INTRA>
1.22799

>  <SCORE.INTRA.DIHEDRAL>
3.13582

>  <SCORE.INTRA.DIHEDRAL.0>
2.1627

>  <SCORE.INTRA.POLAR>
0

>  <SCORE.INTRA.POLAR.0>
0

>  <SCORE.INTRA.REPUL>
0

>  <SCORE.INTRA.REPUL.0>
0

>  <SCORE.INTRA.SOLV>
0.0564166

>  <SCORE.INTRA.SOLV.lig_0>
-5.95779

>  <SCORE.INTRA.VDW>
-0.368126

>  <SCORE.INTRA.VDW.0>
3.81702

>  <SCORE.INTRA.norm>
0.0491197

>  <SCORE.RESTR>
0

>  <SCORE.RESTR.CAVITY>
0

>  <SCORE.RESTR.norm>
0

>  <SCORE.SYSTEM>
0

>  <SCORE.SYSTEM.CONST>
0

>  <SCORE.SYSTEM.DIHEDRAL>
0

>  <SCORE.SYSTEM.SOLV>
0

>  <SCORE.SYSTEM.norm>
0

>  <SCORE.heavy>
25

>  <SCORE.norm>
-1.93745

>  <RMSD>
1.651

$$$$
1q8n_lig
 OpenBabel11021811413D
libRbt.so/2013.1/901 2013/11/27
 25 27  0  0  0  0  0  0  0  0999 V2000
    0.8303    0.7593   -0.7587 C   0  0  0  0  0  0  0  0  0  0  0  0
    0.9037    2.0876   -1.7051 C   0  0  0  0  0  0  0  0  0  0  0  0
   -1.0721    1.4063    4.8434 N   0  0  0  0  0  0  0  0  0  0  0  0
    1.1565    2.0446   -3.0352 C   0  0  0  0  0  0  0  0  0  0  0  0
    2.5119   -4.5430   -2.9882 N   0  0  0  0  0  0  0  0  0  0  0  0
    1.2204    3.2750   -3.8574 C   0  0  0  0  0  0  0  0  0  0  0  0
    1.0214    4.4810   -3.2778 C   0  0  0  0  0  0  0  0  0  0  0  0
    0.7437    4.5489   -1.8621 C   0  0  0  0  0  0  0  0  0  0  0  0
    0.6906    3.4326   -1.1312 C   0  0  0  0  0  0  0  0  0  0  0  0
    0.3106    0.9316    0.7776 C   0  0  0  0  0  0  0  0  0  0  0  0
    0.7042    0.0814    1.7485 C   0  0  0  0  0  0  0  0  0  0  0  0
    0.2399    0.2235    3.1564 C   0  0  0  0  0  0  0  0  0  0  0  0
   -0.6037    1.2332    3.5002 C   0  0  0  0  0  0  0  0  0  0  0  0
   -1.0409    2.1720    2.4497 C   0  0  0  0  0  0  0  0  0  0  0  0
   -0.6148    2.0285    1.1870 C   0  0  0  0  0  0  0  0  0  0  0  0
    1.2684   -0.7377   -1.3208 C   0  0  0  0  0  0  0  0  0  0  0  0
    1.7956   -0.8852   -2.7215 C   0  0  0  0  0  0  0  0  0  0  0  0
    2.1747   -2.0602   -3.2315 C   0  0  0  0  0  0  0  0  0  0  0  0
    2.0924   -3.2898   -2.4344 C   0  0  0  0  0  0  0  0  0  0  0  0
    1.6203   -3.2138   -1.1728 C   0  0  0  0  0  0  0  0  0  0  0  0
    1.1927   -1.8983   -0.5883 C   0  0  0  0  0  0  0  0  0  0  0  0
   -0.9899    0.3644    5.8213 C   0  0  0  0  0  0  0  0  0  0  0  0
   -1.6452    2.6519    5.2500 C   0  0  0  0  0  0  0  0  0  0  0  0
    2.0457   -5.7773   -2.4245 C   0  0  0  0  0  0  0  0  0  0  0  0
    3.4040   -4.6004   -4.1241 C   0  0  0  0  0  0  0  0  0  0  0  0
  1  2  1  0  0  0  0
  1 10  1  0  0  0  0
  1 16  1  0  0  0  0
  2  4  2  0  0  0  0
  2  9  1  0  0  0  0
  4  6  1  0  0  0  0
  6  7  2  0  0  0  0
  7  8  1  0  0  0  0
  8  9  2  0  0  0  0
 10 11  2  0  0  0  0
 10 15  1  0  0  0  0
 11 12  1  0  0  0  0
 12 13  2  0  0  0  0
 13  3  1  0  0  0  0
 13 14  1  0  0  0  0
 14 15  2  0  0  0  0
 16 17  2  0  0  0  0
 16 21  1  0  0  0  0
 17 18  1  0  0  0  0
 18 19  2  0  0  0  0
 19  5  1  0  0  0  0
 19 20  1  0  0  0  0
 20 21  2  0  0  0  0
 22  3  1  0  0  0  0
 23  3  1  0  0  0  0
 24  5  1  0  0  0  0
 25  5  1  0  0  0  0
M  END
>  <CHROM.1>
-171.43917004,-153.00335408,2.22161357,-17.04033486,-159.37418676,0.79569127
0.13081938,-0.27445609,-0.14009348,1.21477957,-0.52323207

>  <Name>
1q8n_lig

>  <RI>
0

>  <Rbt.Current_Directory>
/home/itssahil/PROJECTS/Mol_Feturizer/New_Systems/rnas/1q8n

>  <Rbt.Executable>
rbdock ($Id: //depot/dev/client3/rdock/2013.1/src/exe/rbdock.cxx#4 $)

>  <Rbt.Library>
libRbt.so (2013.1, Build901 2013/11/27)

>  <Rbt.Parameter_File>
/export/apps/rDock/src/rDock_2013.1_src/data/scripts/dock_solv.prm

>  <Rbt.Receptor>
prm/pocket_docking_8.prm

>  <SCORE>
-50.0531

>  <SCORE.INTER>
-51.5092

>  <SCORE.INTER.CONST>
1

>  <SCORE.INTER.POLAR>
0

>  <SCORE.INTER.ROT>
5

>  <SCORE.INTER.SOLV>
9.91773

>  <SCORE.INTER.VDW>
-44.5787

>  <SCORE.INTER.norm>
-2.06037

>  <SCORE.INTRA>
1.45614

>  <SCORE.INTRA.DIHEDRAL>
2.68393

>  <SCORE.INTRA.DIHEDRAL.0>
2.1627

>  <SCORE.INTRA.POLAR>
0

>  <SCORE.INTRA.POLAR.0>
0

>  <SCORE.INTRA.REPUL>
0

>  <SCORE.INTRA.REPUL.0>
0

>  <SCORE.INTRA.SOLV>
0.0641312

>  <SCORE.INTRA.SOLV.lig_0>
-5.95779

>  <SCORE.INTRA.VDW>
0.0821082

>  <SCORE.INTRA.VDW.0>
3.81702

>  <SCORE.INTRA.norm>
0.0582456

>  <SCORE.RESTR>
0

>  <SCORE.RESTR.CAVITY>
0

>  <SCORE.RESTR.norm>
0

>  <SCORE.SYSTEM>
0

>  <SCORE.SYSTEM.CONST>
0

>  <SCORE.SYSTEM.DIHEDRAL>
0

>  <SCORE.SYSTEM.SOLV>
0

>  <SCORE.SYSTEM.norm>
0

>  <SCORE.heavy>
25

>  <SCORE.norm>
-2.00212

>  <RMSD>
1.654

$$$$
1q8n_lig
 OpenBabel11021811403D
libRbt.so/2013.1/901 2013/11/27
 25 27  0  0  0  0  0  0  0  0999 V2000
    0.6978    0.8335   -0.6686 C   0  0  0  0  0  0  0  0  0  0  0  0
    0.7922    2.1310   -1.6551 C   0  0  0  0  0  0  0  0  0  0  0  0
   -1.2154    1.6781    4.9034 N   0  0  0  0  0  0  0  0  0  0  0  0
    0.9547    2.0396   -2.9968 C   0  0  0  0  0  0  0  0  0  0  0  0
    2.2080   -4.7338   -2.2924 N   0  0  0  0  0  0  0  0  0  0  0  0
    1.0415    3.2430   -3.8560 C   0  0  0  0  0  0  0  0  0  0  0  0
    0.9562    4.4730   -3.2994 C   0  0  0  0  0  0  0  0  0  0  0  0
    0.7761    4.5930   -1.8714 C   0  0  0  0  0  0  0  0  0  0  0  0
    0.7012    3.5005   -1.1072 C   0  0  0  0  0  0  0  0  0  0  0  0
    0.1743    1.0597    0.8594 C   0  0  0  0  0  0  0  0  0  0  0  0
    0.3847    0.1313    1.8155 C   0  0  0  0  0  0  0  0  0  0  0  0
   -0.0861    0.3209    3.2155 C   0  0  0  0  0  0  0  0  0  0  0  0
   -0.7477    1.4558    3.5672 C   0  0  0  0  0  0  0  0  0  0  0  0
   -0.9833    2.4810    2.5331 C   0  0  0  0  0  0  0  0  0  0  0  0
   -0.5543    2.2934    1.2772 C   0  0  0  0  0  0  0  0  0  0  0  0
    1.1189   -0.6855   -1.1824 C   0  0  0  0  0  0  0  0  0  0  0  0
    1.4644   -1.7465   -0.1742 C   0  0  0  0  0  0  0  0  0  0  0  0
    1.8021   -2.9914   -0.5214 C   0  0  0  0  0  0  0  0  0  0  0  0
    1.8549   -3.3927   -1.9320 C   0  0  0  0  0  0  0  0  0  0  0  0
    1.5598   -2.4767   -2.8778 C   0  0  0  0  0  0  0  0  0  0  0  0
    1.1772   -1.0748   -2.4994 C   0  0  0  0  0  0  0  0  0  0  0  0
   -1.6805    2.9570    5.3470 C   0  0  0  0  0  0  0  0  0  0  0  0
   -1.2307    0.6043    5.8478 C   0  0  0  0  0  0  0  0  0  0  0  0
    3.0432   -4.9825   -3.4321 C   0  0  0  0  0  0  0  0  0  0  0  0
    1.7426   -5.8650   -1.5221 C   0  0  0  0  0  0  0  0  0  0  0  0
  1  2  1  0  0  0  0
  1 10  1  0  0  0  0
  1 16  1  0  0  0  0
  2  4  2  0  0  0  0
  2  9  1  0  0  0  0
  4  6  1  0  0  0  0
  6  7  2  0  0  0  0
  7  8  1  0  0  0  0
  8  9  2  0  0  0  0
 10 11  2  0  0  0  0
 10 15  1  0  0  0  0
 11 12  1  0  0  0  0
 12 13  2  0  0  0  0
 13  3  1  0  0  0  0
 13 14  1  0  0  0  0
 14 15  2  0  0  0  0
 16 17  2  0  0  0  0
 16 21  1  0  0  0  0
 17 18  1  0  0  0  0
 18 19  2  0  0  0  0
 19  5  1  0  0  0  0
 19 20  1  0  0  0  0
 20 21  2  0  0  0  0
 22  3  1  0  0  0  0
 23  3  1  0  0  0  0
 24  5  1  0  0  0  0
 25  5  1  0  0  0  0
M  END
>  <CHROM.1>
-166.55351876,-163.04924796,159.45457621,167.83861504,-140.72004472,0.63308121
0.17499571,-0.05244826,-2.91280266,-1.22551391,2.60690053

>  <Name>
1q8n_lig

>  <RI>
0

>  <Rbt.Current_Directory>
/home/itssahil/PROJECTS/Mol_Feturizer/New_Systems/rnas/1q8n

>  <Rbt.Executable>
rbdock ($Id: //depot/dev/client3/rdock/2013.1/src/exe/rbdock.cxx#4 $)

>  <Rbt.Library>
libRbt.so (2013.1, Build901 2013/11/27)

>  <Rbt.Parameter_File>
/export/apps/rDock/src/rDock_2013.1_src/data/scripts/dock_solv.prm

>  <Rbt.Receptor>
prm/blind_docking_60.prm

>  <SCORE>
-47.3161

>  <SCORE.INTER>
-49.6596

>  <SCORE.INTER.CONST>
1

>  <SCORE.INTER.POLAR>
0

>  <SCORE.INTER.ROT>
5

>  <SCORE.INTER.SOLV>
10.107

>  <SCORE.INTER.VDW>
-43.4087

>  <SCORE.INTER.norm>
-1.98638

>  <SCORE.INTRA>
2.34342

>  <SCORE.INTRA.DIHEDRAL>
5.69311

>  <SCORE.INTRA.DIHEDRAL.0>
2.1627

>  <SCORE.INTRA.POLAR>
0

>  <SCORE.INTRA.POLAR.0>
0

>  <SCORE.INTRA.REPUL>
0

>  <SCORE.INTRA.REPUL.0>
0

>  <SCORE.INTRA.SOLV>
0.0645962

>  <SCORE.INTRA.SOLV.lig_0>
-5.95779

>  <SCORE.INTRA.VDW>
-0.535433

>  <SCORE.INTRA.VDW.0>
3.81702

>  <SCORE.INTRA.norm>
0.0937368

>  <SCORE.RESTR>
0

>  <SCORE.RESTR.CAVITY>
0

>  <SCORE.RESTR.norm>
0

>  <SCORE.SYSTEM>
0

>  <SCORE.SYSTEM.CONST>
0

>  <SCORE.SYSTEM.DIHEDRAL>
0

>  <SCORE.SYSTEM.SOLV>
0

>  <SCORE.SYSTEM.norm>
0

>  <SCORE.heavy>
25

>  <SCORE.norm>
-1.89265

>  <RMSD>
1.667

$$$$
1q8n_lig
 OpenBabel11021811403D
libRbt.so/2013.1/901 2013/11/27
 25 27  0  0  0  0  0  0  0  0999 V2000
    0.8531    0.6893   -0.8054 C   0  0  0  0  0  0  0  0  0  0  0  0
    0.8795    2.0212   -1.7494 C   0  0  0  0  0  0  0  0  0  0  0  0
   -0.9526    1.2822    4.8346 N   0  0  0  0  0  0  0  0  0  0  0  0
    1.0439    1.9816   -3.0934 C   0  0  0  0  0  0  0  0  0  0  0  0
    2.6189   -4.5688   -3.0741 N   0  0  0  0  0  0  0  0  0  0  0  0
    1.0678    3.2150   -3.9131 C   0  0  0  0  0  0  0  0  0  0  0  0
    0.9210    4.4204   -3.3169 C   0  0  0  0  0  0  0  0  0  0  0  0
    0.7376    4.4848   -1.8858 C   0  0  0  0  0  0  0  0  0  0  0  0
    0.7198    3.3658   -1.1574 C   0  0  0  0  0  0  0  0  0  0  0  0
    0.3598    0.8467    0.7412 C   0  0  0  0  0  0  0  0  0  0  0  0
    0.7403   -0.0341    1.6897 C   0  0  0  0  0  0  0  0  0  0  0  0
    0.2997    0.0940    3.1065 C   0  0  0  0  0  0  0  0  0  0  0  0
   -0.5079    1.1217    3.4817 C   0  0  0  0  0  0  0  0  0  0  0  0
   -0.9305    2.0941    2.4560 C   0  0  0  0  0  0  0  0  0  0  0  0
   -0.5261    1.9628    1.1849 C   0  0  0  0  0  0  0  0  0  0  0  0
    1.3124   -0.7964   -1.3800 C   0  0  0  0  0  0  0  0  0  0  0  0
    1.8924   -0.9166   -2.7624 C   0  0  0  0  0  0  0  0  0  0  0  0
    2.2906   -2.0814   -3.2808 C   0  0  0  0  0  0  0  0  0  0  0  0
    2.1785   -3.3265   -2.5120 C   0  0  0  0  0  0  0  0  0  0  0  0
    1.6589   -3.2752   -1.2678 C   0  0  0  0  0  0  0  0  0  0  0  0
    1.2093   -1.9713   -0.6740 C   0  0  0  0  0  0  0  0  0  0  0  0
   -1.5078    2.5107    5.3155 C   0  0  0  0  0  0  0  0  0  0  0  0
   -0.8518    0.1951    5.7582 C   0  0  0  0  0  0  0  0  0  0  0  0
    3.6370   -4.5870   -4.0848 C   0  0  0  0  0  0  0  0  0  0  0  0
    2.0600   -5.8290   -2.6393 C   0  0  0  0  0  0  0  0  0  0  0  0
  1  2  1  0  0  0  0
  1 10  1  0  0  0  0
  1 16  1  0  0  0  0
  2  4  2  0  0  0  0
  2  9  1  0  0  0  0
  4  6  1  0  0  0  0
  6  7  2  0  0  0  0
  7  8  1  0  0  0  0
  8  9  2  0  0  0  0
 10 11  2  0  0  0  0
 10 15  1  0  0  0  0
 11 12  1  0  0  0  0
 12 13  2  0  0  0  0
 13  3  1  0  0  0  0
 13 14  1  0  0  0  0
 14 15  2  0  0  0  0
 16 17  2  0  0  0  0
 16 21  1  0  0  0  0
 17 18  1  0  0  0  0
 18 19  2  0  0  0  0
 19  5  1  0  0  0  0
 19 20  1  0  0  0  0
 20 21  2  0  0  0  0
 22  3  1  0  0  0  0
 23  3  1  0  0  0  0
 24  5  1  0  0  0  0
 25  5  1  0  0  0  0
M  END
>  <CHROM.1>
-168.18555413,-156.15709718,5.86830458,163.86400537,26.02883889,0.84777941
0.05775950,-0.31955043,-3.06844378,-1.21852290,2.55840550

>  <Name>
1q8n_lig

>  <RI>
0

>  <Rbt.Current_Directory>
/home/itssahil/PROJECTS/Mol_Feturizer/New_Systems/rnas/1q8n

>  <Rbt.Executable>
rbdock ($Id: //depot/dev/client3/rdock/2013.1/src/exe/rbdock.cxx#4 $)

>  <Rbt.Library>
libRbt.so (2013.1, Build901 2013/11/27)

>  <Rbt.Parameter_File>
/export/apps/rDock/src/rDock_2013.1_src/data/scripts/dock_solv.prm

>  <Rbt.Receptor>
prm/blind_docking_20.prm

>  <SCORE>
-50.373

>  <SCORE.INTER>
-51.9176

>  <SCORE.INTER.CONST>
1

>  <SCORE.INTER.POLAR>
0

>  <SCORE.INTER.ROT>
5

>  <SCORE.INTER.SOLV>
9.66482

>  <SCORE.INTER.VDW>
-44.7667

>  <SCORE.INTER.norm>
-2.0767

>  <SCORE.INTRA>
1.54465

>  <SCORE.INTRA.DIHEDRAL>
3.44932

>  <SCORE.INTRA.DIHEDRAL.0>
2.1627

>  <SCORE.INTRA.POLAR>
0

>  <SCORE.INTRA.POLAR.0>
0

>  <SCORE.INTRA.REPUL>
0

>  <SCORE.INTRA.REPUL.0>
0

>  <SCORE.INTRA.SOLV>
0.0644195

>  <SCORE.INTRA.SOLV.lig_0>
-5.95779

>  <SCORE.INTRA.VDW>
-0.212224

>  <SCORE.INTRA.VDW.0>
3.81702

>  <SCORE.INTRA.norm>
0.0617858

>  <SCORE.RESTR>
0

>  <SCORE.RESTR.CAVITY>
0

>  <SCORE.RESTR.norm>
0

>  <SCORE.SYSTEM>
0

>  <SCORE.SYSTEM.CONST>
0

>  <SCORE.SYSTEM.DIHEDRAL>
0

>  <SCORE.SYSTEM.SOLV>
0

>  <SCORE.SYSTEM.norm>
0

>  <SCORE.heavy>
25

>  <SCORE.norm>
-2.01492

>  <RMSD>
1.676

$$$$
1q8n_lig
 OpenBabel11021811413D
libRbt.so/2013.1/901 2013/11/27
 25 27  0  0  0  0  0  0  0  0999 V2000
    0.8860    0.7549   -0.7916 C   0  0  0  0  0  0  0  0  0  0  0  0
    0.8986    2.0676   -1.7622 C   0  0  0  0  0  0  0  0  0  0  0  0
    2.6130   -4.4704   -3.0577 N   0  0  0  0  0  0  0  0  0  0  0  0
    1.0421    2.0012   -3.1075 C   0  0  0  0  0  0  0  0  0  0  0  0
   -0.9976    1.2680    4.8742 N   0  0  0  0  0  0  0  0  0  0  0  0
    1.0540    3.2180   -3.9520 C   0  0  0  0  0  0  0  0  0  0  0  0
    0.9173    4.4352   -3.3777 C   0  0  0  0  0  0  0  0  0  0  0  0
    0.7562    4.5282   -1.9455 C   0  0  0  0  0  0  0  0  0  0  0  0
    0.7490    3.4239   -1.1947 C   0  0  0  0  0  0  0  0  0  0  0  0
    1.3597   -0.6748   -1.4175 C   0  0  0  0  0  0  0  0  0  0  0  0
    1.9339   -0.7489   -2.6362 C   0  0  0  0  0  0  0  0  0  0  0  0
    2.3725   -2.0453   -3.2233 C   0  0  0  0  0  0  0  0  0  0  0  0
    2.2031   -3.2027   -2.5298 C   0  0  0  0  0  0  0  0  0  0  0  0
    1.5787   -3.1373   -1.1949 C   0  0  0  0  0  0  0  0  0  0  0  0
    1.1880   -1.9621   -0.6822 C   0  0  0  0  0  0  0  0  0  0  0  0
    0.4069    0.8461    0.7930 C   0  0  0  0  0  0  0  0  0  0  0  0
   -0.4538    1.9920    1.2488 C   0  0  0  0  0  0  0  0  0  0  0  0
   -0.8815    2.1190    2.5079 C   0  0  0  0  0  0  0  0  0  0  0  0
   -0.5243    1.1274    3.5291 C   0  0  0  0  0  0  0  0  0  0  0  0
    0.2517    0.0822    3.1740 C   0  0  0  0  0  0  0  0  0  0  0  0
    0.7371   -0.0718    1.7613 C   0  0  0  0  0  0  0  0  0  0  0  0
    2.0905   -5.7082   -2.5645 C   0  0  0  0  0  0  0  0  0  0  0  0
    3.5747   -4.5321   -4.1144 C   0  0  0  0  0  0  0  0  0  0  0  0
   -0.9632    0.1522    5.7755 C   0  0  0  0  0  0  0  0  0  0  0  0
   -1.5134    2.5278    5.3603 C   0  0  0  0  0  0  0  0  0  0  0  0
  1  2  1  0  0  0  0
  1 10  1  0  0  0  0
  1 16  1  0  0  0  0
  2  4  2  0  0  0  0
  2  9  1  0  0  0  0
  4  6  1  0  0  0  0
  6  7  2  0  0  0  0
  7  8  1  0  0  0  0
  8  9  2  0  0  0  0
 10 11  2  0  0  0  0
 10 15  1  0  0  0  0
 11 12  1  0  0  0  0
 12 13  2  0  0  0  0
 13  3  1  0  0  0  0
 13 14  1  0  0  0  0
 14 15  2  0  0  0  0
 16 17  2  0  0  0  0
 16 21  1  0  0  0  0
 17 18  1  0  0  0  0
 18 19  2  0  0  0  0
 19  5  1  0  0  0  0
 19 20  1  0  0  0  0
 20 21  2  0  0  0  0
 22  3  1  0  0  0  0
 23  3  1  0  0  0  0
 24  5  1  0  0  0  0
 25  5  1  0  0  0  0
M  END
>  <CHROM.1>
12.51432427,9.69313413,20.85998743,-160.13578674,163.25452294,0.84931468
0.10100291,-0.29909233,-0.05216278,1.21468894,-0.57531094

>  <Name>
1q8n_lig

>  <RI>
0

>  <Rbt.Current_Directory>
/home/itssahil/PROJECTS/Mol_Feturizer/New_Systems/rnas/1q8n

>  <Rbt.Executable>
rbdock ($Id: //depot/dev/client3/rdock/2013.1/src/exe/rbdock.cxx#4 $)

>  <Rbt.Library>
libRbt.so (2013.1, Build901 2013/11/27)

>  <Rbt.Parameter_File>
/export/apps/rDock/src/rDock_2013.1_src/data/scripts/dock_solv.prm

>  <Rbt.Receptor>
prm/pocket_docking_6.prm

>  <SCORE>
-49.5669

>  <SCORE.INTER>
-51.1867

>  <SCORE.INTER.CONST>
1

>  <SCORE.INTER.POLAR>
0

>  <SCORE.INTER.ROT>
5

>  <SCORE.INTER.SOLV>
9.63973

>  <SCORE.INTER.VDW>
-44.2711

>  <SCORE.INTER.norm>
-2.04747

>  <SCORE.INTRA>
1.61985

>  <SCORE.INTRA.DIHEDRAL>
2.53771

>  <SCORE.INTRA.DIHEDRAL.0>
2.1627

>  <SCORE.INTRA.POLAR>
0

>  <SCORE.INTRA.POLAR.0>
0

>  <SCORE.INTRA.REPUL>
0

>  <SCORE.INTRA.REPUL.0>
0

>  <SCORE.INTRA.SOLV>
0.0647779

>  <SCORE.INTRA.SOLV.lig_0>
-5.95779

>  <SCORE.INTRA.VDW>
0.318604

>  <SCORE.INTRA.VDW.0>
3.81702

>  <SCORE.INTRA.norm>
0.064794

>  <SCORE.RESTR>
0

>  <SCORE.RESTR.CAVITY>
0

>  <SCORE.RESTR.norm>
0

>  <SCORE.SYSTEM>
0

>  <SCORE.SYSTEM.CONST>
0

>  <SCORE.SYSTEM.DIHEDRAL>
0

>  <SCORE.SYSTEM.SOLV>
0

>  <SCORE.SYSTEM.norm>
0

>  <SCORE.heavy>
25

>  <SCORE.norm>
-1.98268

>  <RMSD>
1.676

$$$$
1q8n_lig
 OpenBabel11021811403D
libRbt.so/2013.1/901 2013/11/27
 25 27  0  0  0  0  0  0  0  0999 V2000
    0.8796    0.7517   -0.7846 C   0  0  0  0  0  0  0  0  0  0  0  0
    0.9055    2.0676   -1.7507 C   0  0  0  0  0  0  0  0  0  0  0  0
    2.6137   -4.4711   -3.0509 N   0  0  0  0  0  0  0  0  0  0  0  0
    1.0680    2.0055   -3.0940 C   0  0  0  0  0  0  0  0  0  0  0  0
   -1.0557    1.2533    4.8649 N   0  0  0  0  0  0  0  0  0  0  0  0
    1.0914    3.2250   -3.9343 C   0  0  0  0  0  0  0  0  0  0  0  0
    0.9462    4.4403   -3.3581 C   0  0  0  0  0  0  0  0  0  0  0  0
    0.7649    4.5287   -1.9280 C   0  0  0  0  0  0  0  0  0  0  0  0
    0.7474    3.4220   -1.1810 C   0  0  0  0  0  0  0  0  0  0  0  0
    1.3552   -0.6773   -1.4106 C   0  0  0  0  0  0  0  0  0  0  0  0
    1.9113   -0.7530   -2.6375 C   0  0  0  0  0  0  0  0  0  0  0  0
    2.3512   -2.0489   -3.2249 C   0  0  0  0  0  0  0  0  0  0  0  0
    2.2018   -3.2041   -2.5231 C   0  0  0  0  0  0  0  0  0  0  0  0
    1.5973   -3.1368   -1.1792 C   0  0  0  0  0  0  0  0  0  0  0  0
    1.2051   -1.9622   -0.6663 C   0  0  0  0  0  0  0  0  0  0  0  0
    0.3855    0.8392    0.7956 C   0  0  0  0  0  0  0  0  0  0  0  0
   -0.4670    1.9920    1.2494 C   0  0  0  0  0  0  0  0  0  0  0  0
   -0.9060    2.1165    2.5048 C   0  0  0  0  0  0  0  0  0  0  0  0
   -0.5703    1.1151    3.5237 C   0  0  0  0  0  0  0  0  0  0  0  0
    0.1976    0.0634    3.1704 C   0  0  0  0  0  0  0  0  0  0  0  0
    0.6956   -0.0879    1.7619 C   0  0  0  0  0  0  0  0  0  0  0  0
    3.5434   -4.5818   -4.1335 C   0  0  0  0  0  0  0  0  0  0  0  0
    2.0959   -5.6835   -2.4966 C   0  0  0  0  0  0  0  0  0  0  0  0
   -1.0677    0.1254    5.7515 C   0  0  0  0  0  0  0  0  0  0  0  0
   -1.5373    2.5225    5.3614 C   0  0  0  0  0  0  0  0  0  0  0  0
  1  2  1  0  0  0  0
  1 10  1  0  0  0  0
  1 16  1  0  0  0  0
  2  4  2  0  0  0  0
  2  9  1  0  0  0  0
  4  6  1  0  0  0  0
  6  7  2  0  0  0  0
  7  8  1  0  0  0  0
  8  9  2  0  0  0  0
 10 11  2  0  0  0  0
 10 15  1  0  0  0  0
 11 12  1  0  0  0  0
 12 13  2  0  0  0  0
 13  3  1  0  0  0  0
 13 14  1  0  0  0  0
 14 15  2  0  0  0  0
 16 17  2  0  0  0  0
 16 21  1  0  0  0  0
 17 18  1  0  0  0  0
 18 19  2  0  0  0  0
 19  5  1  0  0  0  0
 19 20  1  0  0  0  0
 20 21  2  0  0  0  0
 22  3  1  0  0  0  0
 23  3  1  0  0  0  0
 24  5  1  0  0  0  0
 25  5  1  0  0  0  0
M  END
>  <CHROM.1>
12.19709846,8.05887140,20.36732594,18.95395862,161.99796629,0.83554663,0.09561599
-0.29279833,-0.07312988,1.20902346,-0.55332757

>  <Name>
1q8n_lig

>  <RI>
0

>  <Rbt.Current_Directory>
/home/itssahil/PROJECTS/Mol_Feturizer/New_Systems/rnas/1q8n

>  <Rbt.Executable>
rbdock ($Id: //depot/dev/client3/rdock/2013.1/src/exe/rbdock.cxx#4 $)

>  <Rbt.Library>
libRbt.so (2013.1, Build901 2013/11/27)

>  <Rbt.Parameter_File>
/export/apps/rDock/src/rDock_2013.1_src/data/scripts/dock_solv.prm

>  <Rbt.Receptor>
prm/pocket_docking_5.prm

>  <SCORE>
-49.5766

>  <SCORE.INTER>
-51.251

>  <SCORE.INTER.CONST>
1

>  <SCORE.INTER.POLAR>
0

>  <SCORE.INTER.ROT>
5

>  <SCORE.INTER.SOLV>
9.6775

>  <SCORE.INTER.VDW>
-44.3265

>  <SCORE.INTER.norm>
-2.05004

>  <SCORE.INTRA>
1.67447

>  <SCORE.INTRA.DIHEDRAL>
2.57037

>  <SCORE.INTRA.DIHEDRAL.0>
2.1627

>  <SCORE.INTRA.POLAR>
0

>  <SCORE.INTRA.POLAR.0>
0

>  <SCORE.INTRA.REPUL>
0

>  <SCORE.INTRA.REPUL.0>
0

>  <SCORE.INTRA.SOLV>
0.0660096

>  <SCORE.INTRA.SOLV.lig_0>
-5.95779

>  <SCORE.INTRA.VDW>
0.356284

>  <SCORE.INTRA.VDW.0>
3.81702

>  <SCORE.INTRA.norm>
0.0669789

>  <SCORE.RESTR>
0

>  <SCORE.RESTR.CAVITY>
0

>  <SCORE.RESTR.norm>
0

>  <SCORE.SYSTEM>
0

>  <SCORE.SYSTEM.CONST>
0

>  <SCORE.SYSTEM.DIHEDRAL>
0

>  <SCORE.SYSTEM.SOLV>
0

>  <SCORE.SYSTEM.norm>
0

>  <SCORE.heavy>
25

>  <SCORE.norm>
-1.98306

>  <RMSD>
1.680

$$$$
1q8n_lig
 OpenBabel11021811413D
libRbt.so/2013.1/901 2013/11/27
 25 27  0  0  0  0  0  0  0  0999 V2000
    0.8815    0.7461   -0.7804 C   0  0  0  0  0  0  0  0  0  0  0  0
    0.9013    2.0575   -1.7528 C   0  0  0  0  0  0  0  0  0  0  0  0
    2.5969   -4.4882   -3.0346 N   0  0  0  0  0  0  0  0  0  0  0  0
    1.0657    1.9898   -3.0957 C   0  0  0  0  0  0  0  0  0  0  0  0
   -1.0151    1.2740    4.8797 N   0  0  0  0  0  0  0  0  0  0  0  0
    1.0834    3.2054   -3.9417 C   0  0  0  0  0  0  0  0  0  0  0  0
    0.9311    4.4227   -3.3715 C   0  0  0  0  0  0  0  0  0  0  0  0
    0.7477    4.5169   -1.9420 C   0  0  0  0  0  0  0  0  0  0  0  0
    0.7354    3.4137   -1.1898 C   0  0  0  0  0  0  0  0  0  0  0  0
    1.3518   -0.6861   -1.4031 C   0  0  0  0  0  0  0  0  0  0  0  0
    1.8765   -0.7711   -2.6432 C   0  0  0  0  0  0  0  0  0  0  0  0
    2.3112   -2.0700   -3.2277 C   0  0  0  0  0  0  0  0  0  0  0  0
    2.1889   -3.2185   -2.5099 C   0  0  0  0  0  0  0  0  0  0  0  0
    1.6189   -3.1410   -1.1516 C   0  0  0  0  0  0  0  0  0  0  0  0
    1.2310   -1.9638   -0.6414 C   0  0  0  0  0  0  0  0  0  0  0  0
    0.3985    0.8412    0.8027 C   0  0  0  0  0  0  0  0  0  0  0  0
   -0.4574    1.9920    1.2552 C   0  0  0  0  0  0  0  0  0  0  0  0
   -0.8879    2.1224    2.5130 C   0  0  0  0  0  0  0  0  0  0  0  0
   -0.5388    1.1297    3.5360 C   0  0  0  0  0  0  0  0  0  0  0  0
    0.2326    0.0802    3.1840 C   0  0  0  0  0  0  0  0  0  0  0  0
    0.7210   -0.0777    1.7728 C   0  0  0  0  0  0  0  0  0  0  0  0
    2.0770   -5.7242   -2.5342 C   0  0  0  0  0  0  0  0  0  0  0  0
    3.5540   -4.5538   -4.0952 C   0  0  0  0  0  0  0  0  0  0  0  0
   -1.0001    0.1557    5.7784 C   0  0  0  0  0  0  0  0  0  0  0  0
   -1.5145    2.5400    5.3668 C   0  0  0  0  0  0  0  0  0  0  0  0
  1  2  1  0  0  0  0
  1 10  1  0  0  0  0
  1 16  1  0  0  0  0
  2  4  2  0  0  0  0
  2  9  1  0  0  0  0
  4  6  1  0  0  0  0
  6  7  2  0  0  0  0
  7  8  1  0  0  0  0
  8  9  2  0  0  0  0
 10 11  2  0  0  0  0
 10 15  1  0  0  0  0
 11 12  1  0  0  0  0
 12 13  2  0  0  0  0
 13  3  1  0  0  0  0
 13 14  1  0  0  0  0
 14 15  2  0  0  0  0
 16 17  2  0  0  0  0
 16 21  1  0  0  0  0
 17 18  1  0  0  0  0
 18 19  2  0  0  0  0
 19  5  1  0  0  0  0
 19 20  1  0  0  0  0
 20 21  2  0  0  0  0
 22  3  1  0  0  0  0
 23  3  1  0  0  0  0
 24  5  1  0  0  0  0
 25  5  1  0  0  0  0
M  END
>  <CHROM.1>
11.62167185,6.82601140,20.75272585,-157.75232159,162.70124234,0.84148500
0.09318205,-0.28695288,-0.05998343,1.21460480,-0.56984856

>  <Name>
1q8n_lig

>  <RI>
0

>  <Rbt.Current_Directory>
/home/itssahil/PROJECTS/Mol_Feturizer/New_Systems/rnas/1q8n

>  <Rbt.Executable>
rbdock ($Id: //depot/dev/client3/rdock/2013.1/src/exe/rbdock.cxx#4 $)

>  <Rbt.Library>
libRbt.so (2013.1, Build901 2013/11/27)

>  <Rbt.Parameter_File>
/export/apps/rDock/src/rDock_2013.1_src/data/scripts/dock_solv.prm

>  <Rbt.Receptor>
prm/pocket_docking_6.prm

>  <SCORE>
-49.5396

>  <SCORE.INTER>
-51.3326

>  <SCORE.INTER.CONST>
1

>  <SCORE.INTER.POLAR>
0

>  <SCORE.INTER.ROT>
5

>  <SCORE.INTER.SOLV>
9.64697

>  <SCORE.INTER.VDW>
-44.3707

>  <SCORE.INTER.norm>
-2.0533

>  <SCORE.INTRA>
1.79303

>  <SCORE.INTRA.DIHEDRAL>
2.96409

>  <SCORE.INTRA.DIHEDRAL.0>
2.1627

>  <SCORE.INTRA.POLAR>
0

>  <SCORE.INTRA.POLAR.0>
0

>  <SCORE.INTRA.REPUL>
0

>  <SCORE.INTRA.REPUL.0>
0

>  <SCORE.INTRA.SOLV>
0.0663572

>  <SCORE.INTRA.SOLV.lig_0>
-5.95779

>  <SCORE.INTRA.VDW>
0.277804

>  <SCORE.INTRA.VDW.0>
3.81702

>  <SCORE.INTRA.norm>
0.0717211

>  <SCORE.RESTR>
0

>  <SCORE.RESTR.CAVITY>
0

>  <SCORE.RESTR.norm>
0

>  <SCORE.SYSTEM>
0

>  <SCORE.SYSTEM.CONST>
0

>  <SCORE.SYSTEM.DIHEDRAL>
0

>  <SCORE.SYSTEM.SOLV>
0

>  <SCORE.SYSTEM.norm>
0

>  <SCORE.heavy>
25

>  <SCORE.norm>
-1.98158

>  <RMSD>
1.682

$$$$
1q8n_lig
 OpenBabel11021811413D
libRbt.so/2013.1/901 2013/11/27
 25 27  0  0  0  0  0  0  0  0999 V2000
    0.9001    0.7457   -0.8136 C   0  0  0  0  0  0  0  0  0  0  0  0
    0.9035    2.0686   -1.7703 C   0  0  0  0  0  0  0  0  0  0  0  0
    2.7069   -4.4342   -3.1215 N   0  0  0  0  0  0  0  0  0  0  0  0
    1.0358    2.0165   -3.1174 C   0  0  0  0  0  0  0  0  0  0  0  0
   -1.0255    1.1804    4.8447 N   0  0  0  0  0  0  0  0  0  0  0  0
    1.0397    3.2422   -3.9491 C   0  0  0  0  0  0  0  0  0  0  0  0
    0.9069    4.4531   -3.3608 C   0  0  0  0  0  0  0  0  0  0  0  0
    0.7578    4.5309   -1.9264 C   0  0  0  0  0  0  0  0  0  0  0  0
    0.7577    3.4187   -1.1873 C   0  0  0  0  0  0  0  0  0  0  0  0
    1.3958   -0.6715   -1.4509 C   0  0  0  0  0  0  0  0  0  0  0  0
    2.0063   -0.7222   -2.6530 C   0  0  0  0  0  0  0  0  0  0  0  0
    2.4654   -2.0069   -3.2502 C   0  0  0  0  0  0  0  0  0  0  0  0
    2.2783   -3.1771   -2.5831 C   0  0  0  0  0  0  0  0  0  0  0  0
    1.6142   -3.1371   -1.2666 C   0  0  0  0  0  0  0  0  0  0  0  0
    1.2055   -1.9722   -0.7445 C   0  0  0  0  0  0  0  0  0  0  0  0
    0.4086    0.8144    0.7683 C   0  0  0  0  0  0  0  0  0  0  0  0
   -0.4412    1.9629    1.2377 C   0  0  0  0  0  0  0  0  0  0  0  0
   -0.8780    2.0727    2.4953 C   0  0  0  0  0  0  0  0  0  0  0  0
   -0.5424    1.0581    3.5012 C   0  0  0  0  0  0  0  0  0  0  0  0
    0.2231    0.0095    3.1336 C   0  0  0  0  0  0  0  0  0  0  0  0
    0.7185   -0.1252    1.7225 C   0  0  0  0  0  0  0  0  0  0  0  0
    3.7083   -4.5274   -4.1399 C   0  0  0  0  0  0  0  0  0  0  0  0
    2.1333   -5.6539   -2.6437 C   0  0  0  0  0  0  0  0  0  0  0  0
   -1.5410    2.4326    5.3188 C   0  0  0  0  0  0  0  0  0  0  0  0
   -1.0134    0.0550    5.7517 C   0  0  0  0  0  0  0  0  0  0  0  0
  1  2  1  0  0  0  0
  1 10  1  0  0  0  0
  1 16  1  0  0  0  0
  2  4  2  0  0  0  0
  2  9  1  0  0  0  0
  4  6  1  0  0  0  0
  6  7  2  0  0  0  0
  7  8  1  0  0  0  0
  8  9  2  0  0  0  0
 10 11  2  0  0  0  0
 10 15  1  0  0  0  0
 11 12  1  0  0  0  0
 12 13  2  0  0  0  0
 13  3  1  0  0  0  0
 13 14  1  0  0  0  0
 14 15  2  0  0  0  0
 16 17  2  0  0  0  0
 16 21  1  0  0  0  0
 17 18  1  0  0  0  0
 18 19  2  0  0  0  0
 19  5  1  0  0  0  0
 19 20  1  0  0  0  0
 20 21  2  0  0  0  0
 22  3  1  0  0  0  0
 23  3  1  0  0  0  0
 24  5  1  0  0  0  0
 25  5  1  0  0  0  0
M  END
>  <CHROM.1>
13.62419176,11.17580189,19.34612845,20.56433312,-16.02458164,0.86734777,0.08619608
-0.32662609,-0.04271378,1.20278274,-0.57446327

>  <Name>
1q8n_lig

>  <RI>
0

>  <Rbt.Current_Directory>
/home/itssahil/PROJECTS/Mol_Feturizer/New_Systems/rnas/1q8n

>  <Rbt.Executable>
rbdock ($Id: //depot/dev/client3/rdock/2013.1/src/exe/rbdock.cxx#4 $)

>  <Rbt.Library>
libRbt.so (2013.1, Build901 2013/11/27)

>  <Rbt.Parameter_File>
/export/apps/rDock/src/rDock_2013.1_src/data/scripts/dock_solv.prm

>  <Rbt.Receptor>
prm/pocket_docking_6.prm

>  <SCORE>
-49.6161

>  <SCORE.INTER>
-51.1362

>  <SCORE.INTER.CONST>
1

>  <SCORE.INTER.POLAR>
0

>  <SCORE.INTER.ROT>
5

>  <SCORE.INTER.SOLV>
9.62198

>  <SCORE.INTER.VDW>
-44.2315

>  <SCORE.INTER.norm>
-2.04545

>  <SCORE.INTRA>
1.52009

>  <SCORE.INTRA.DIHEDRAL>
2.55194

>  <SCORE.INTRA.DIHEDRAL.0>
2.1627

>  <SCORE.INTRA.POLAR>
0

>  <SCORE.INTRA.POLAR.0>
0

>  <SCORE.INTRA.REPUL>
0

>  <SCORE.INTRA.REPUL.0>
0

>  <SCORE.INTRA.SOLV>
0.0646566

>  <SCORE.INTRA.SOLV.lig_0>
-5.95779

>  <SCORE.INTRA.VDW>
0.211792

>  <SCORE.INTRA.VDW.0>
3.81702

>  <SCORE.INTRA.norm>
0.0608037

>  <SCORE.RESTR>
0

>  <SCORE.RESTR.CAVITY>
0

>  <SCORE.RESTR.norm>
0

>  <SCORE.SYSTEM>
0

>  <SCORE.SYSTEM.CONST>
0

>  <SCORE.SYSTEM.DIHEDRAL>
0

>  <SCORE.SYSTEM.SOLV>
0

>  <SCORE.SYSTEM.norm>
0

>  <SCORE.heavy>
25

>  <SCORE.norm>
-1.98465

>  <RMSD>
1.687

$$$$
1q8n_lig
 OpenBabel11021811403D
libRbt.so/2013.1/901 2013/11/27
 25 27  0  0  0  0  0  0  0  0999 V2000
    0.8859    0.7548   -0.8055 C   0  0  0  0  0  0  0  0  0  0  0  0
    0.8977    2.0774   -1.7626 C   0  0  0  0  0  0  0  0  0  0  0  0
    2.6252   -4.4442   -3.1221 N   0  0  0  0  0  0  0  0  0  0  0  0
    1.0536    2.0257   -3.1072 C   0  0  0  0  0  0  0  0  0  0  0  0
   -1.0063    1.2081    4.8626 N   0  0  0  0  0  0  0  0  0  0  0  0
    1.0643    3.2511   -3.9392 C   0  0  0  0  0  0  0  0  0  0  0  0
    0.9139    4.4614   -3.3539 C   0  0  0  0  0  0  0  0  0  0  0  0
    0.7395    4.5387   -1.9223 C   0  0  0  0  0  0  0  0  0  0  0  0
    0.7335    3.4268   -1.1828 C   0  0  0  0  0  0  0  0  0  0  0  0
    1.3631   -0.6676   -1.4452 C   0  0  0  0  0  0  0  0  0  0  0  0
    1.9767   -0.7238   -2.6455 C   0  0  0  0  0  0  0  0  0  0  0  0
    2.4191   -2.0134   -3.2448 C   0  0  0  0  0  0  0  0  0  0  0  0
    2.2130   -3.1826   -2.5816 C   0  0  0  0  0  0  0  0  0  0  0  0
    1.5453   -3.1366   -1.2671 C   0  0  0  0  0  0  0  0  0  0  0  0
    1.1518   -1.9674   -0.7430 C   0  0  0  0  0  0  0  0  0  0  0  0
    0.4041    0.8290    0.7791 C   0  0  0  0  0  0  0  0  0  0  0  0
   -0.4502    1.9746    1.2477 C   0  0  0  0  0  0  0  0  0  0  0  0
   -0.8796    2.0884    2.5075 C   0  0  0  0  0  0  0  0  0  0  0  0
   -0.5310    1.0815    3.5167 C   0  0  0  0  0  0  0  0  0  0  0  0
    0.2389    0.0360    3.1499 C   0  0  0  0  0  0  0  0  0  0  0  0
    0.7262   -0.1033    1.7364 C   0  0  0  0  0  0  0  0  0  0  0  0
    2.0950   -5.6871   -2.6504 C   0  0  0  0  0  0  0  0  0  0  0  0
    3.5971   -4.4943   -4.1701 C   0  0  0  0  0  0  0  0  0  0  0  0
   -0.9746    0.0826    5.7517 C   0  0  0  0  0  0  0  0  0  0  0  0
   -1.5213    2.4633    5.3615 C   0  0  0  0  0  0  0  0  0  0  0  0
  1  2  1  0  0  0  0
  1 10  1  0  0  0  0
  1 16  1  0  0  0  0
  2  4  2  0  0  0  0
  2  9  1  0  0  0  0
  4  6  1  0  0  0  0
  6  7  2  0  0  0  0
  7  8  1  0  0  0  0
  8  9  2  0  0  0  0
 10 11  2  0  0  0  0
 10 15  1  0  0  0  0
 11 12  1  0  0  0  0
 12 13  2  0  0  0  0
 13  3  1  0  0  0  0
 13 14  1  0  0  0  0
 14 15  2  0  0  0  0
 16 17  2  0  0  0  0
 16 21  1  0  0  0  0
 17 18  1  0  0  0  0
 18 19  2  0  0  0  0
 19  5  1  0  0  0  0
 19 20  1  0  0  0  0
 20 21  2  0  0  0  0
 22  3  1  0  0  0  0
 23  3  1  0  0  0  0
 24  5  1  0  0  0  0
 25  5  1  0  0  0  0
M  END
>  <CHROM.1>
11.99967233,11.75866405,20.36327452,-161.65347936,163.57591892,0.84944599
0.09614602,-0.31979349,-0.05450310,1.21217598,-0.56288876

>  <Name>
1q8n_lig

>  <RI>
0

>  <Rbt.Current_Directory>
/home/itssahil/PROJECTS/Mol_Feturizer/New_Systems/rnas/1q8n

>  <Rbt.Executable>
rbdock ($Id: //depot/dev/client3/rdock/2013.1/src/exe/rbdock.cxx#4 $)

>  <Rbt.Library>
libRbt.so (2013.1, Build901 2013/11/27)

>  <Rbt.Parameter_File>
/export/apps/rDock/src/rDock_2013.1_src/data/scripts/dock_solv.prm

>  <Rbt.Receptor>
prm/blind_docking_60.prm

>  <SCORE>
-49.5294

>  <SCORE.INTER>
-51.0818

>  <SCORE.INTER.CONST>
1

>  <SCORE.INTER.POLAR>
0

>  <SCORE.INTER.ROT>
5

>  <SCORE.INTER.SOLV>
9.60908

>  <SCORE.INTER.VDW>
-44.1909

>  <SCORE.INTER.norm>
-2.04327

>  <SCORE.INTRA>
1.5524

>  <SCORE.INTRA.DIHEDRAL>
2.28861

>  <SCORE.INTRA.DIHEDRAL.0>
2.1627

>  <SCORE.INTRA.POLAR>
0

>  <SCORE.INTRA.POLAR.0>
0

>  <SCORE.INTRA.REPUL>
0

>  <SCORE.INTRA.REPUL.0>
0

>  <SCORE.INTRA.SOLV>
0.064543

>  <SCORE.INTRA.SOLV.lig_0>
-5.95779

>  <SCORE.INTRA.VDW>
0.375821

>  <SCORE.INTRA.VDW.0>
3.81702

>  <SCORE.INTRA.norm>
0.0620959

>  <SCORE.RESTR>
0

>  <SCORE.RESTR.CAVITY>
0

>  <SCORE.RESTR.norm>
0

>  <SCORE.SYSTEM>
0

>  <SCORE.SYSTEM.CONST>
0

>  <SCORE.SYSTEM.DIHEDRAL>
0

>  <SCORE.SYSTEM.SOLV>
0

>  <SCORE.SYSTEM.norm>
0

>  <SCORE.heavy>
25

>  <SCORE.norm>
-1.98118

>  <RMSD>
1.690

$$$$
1q8n_lig
 OpenBabel11021811403D
libRbt.so/2013.1/901 2013/11/27
 25 27  0  0  0  0  0  0  0  0999 V2000
    0.8602    0.6860   -0.7797 C   0  0  0  0  0  0  0  0  0  0  0  0
    0.9040    2.0194   -1.7208 C   0  0  0  0  0  0  0  0  0  0  0  0
   -0.9837    1.2819    4.8476 N   0  0  0  0  0  0  0  0  0  0  0  0
    1.1057    1.9830   -3.0598 C   0  0  0  0  0  0  0  0  0  0  0  0
    2.5984   -4.5815   -3.0481 N   0  0  0  0  0  0  0  0  0  0  0  0
    1.1443    3.2178   -3.8769 C   0  0  0  0  0  0  0  0  0  0  0  0
    0.9734    4.4213   -3.2833 C   0  0  0  0  0  0  0  0  0  0  0  0
    0.7502    4.4823   -1.8577 C   0  0  0  0  0  0  0  0  0  0  0  0
    0.7195    3.3621   -1.1316 C   0  0  0  0  0  0  0  0  0  0  0  0
    0.3562    0.8441    0.7634 C   0  0  0  0  0  0  0  0  0  0  0  0
    0.6949   -0.0600    1.7058 C   0  0  0  0  0  0  0  0  0  0  0  0
    0.2439    0.0684    3.1194 C   0  0  0  0  0  0  0  0  0  0  0  0
   -0.5305    1.1203    3.4977 C   0  0  0  0  0  0  0  0  0  0  0  0
   -0.9070    2.1182    2.4787 C   0  0  0  0  0  0  0  0  0  0  0  0
   -0.4940    1.9863    1.2104 C   0  0  0  0  0  0  0  0  0  0  0  0
    1.3125   -0.8022   -1.3538 C   0  0  0  0  0  0  0  0  0  0  0  0
    1.8765   -0.9278   -2.7422 C   0  0  0  0  0  0  0  0  0  0  0  0
    2.2685   -2.0948   -3.2607 C   0  0  0  0  0  0  0  0  0  0  0  0
    2.1648   -3.3368   -2.4858 C   0  0  0  0  0  0  0  0  0  0  0  0
    1.6595   -3.2806   -1.2360 C   0  0  0  0  0  0  0  0  0  0  0  0
    1.2171   -1.9743   -0.6421 C   0  0  0  0  0  0  0  0  0  0  0  0
   -1.5114    2.5206    5.3330 C   0  0  0  0  0  0  0  0  0  0  0  0
   -0.9198    0.1854    5.7635 C   0  0  0  0  0  0  0  0  0  0  0  0
    3.5969   -4.6032   -4.0780 C   0  0  0  0  0  0  0  0  0  0  0  0
    2.0521   -5.8405   -2.5944 C   0  0  0  0  0  0  0  0  0  0  0  0
  1  2  1  0  0  0  0
  1 10  1  0  0  0  0
  1 16  1  0  0  0  0
  2  4  2  0  0  0  0
  2  9  1  0  0  0  0
  4  6  1  0  0  0  0
  6  7  2  0  0  0  0
  7  8  1  0  0  0  0
  8  9  2  0  0  0  0
 10 11  2  0  0  0  0
 10 15  1  0  0  0  0
 11 12  1  0  0  0  0
 12 13  2  0  0  0  0
 13  3  1  0  0  0  0
 13 14  1  0  0  0  0
 14 15  2  0  0  0  0
 16 17  2  0  0  0  0
 16 21  1  0  0  0  0
 17 18  1  0  0  0  0
 18 19  2  0  0  0  0
 19  5  1  0  0  0  0
 19 20  1  0  0  0  0
 20 21  2  0  0  0  0
 22  3  1  0  0  0  0
 23  3  1  0  0  0  0
 24  5  1  0  0  0  0
 25  5  1  0  0  0  0
M  END
>  <CHROM.1>
-169.58299981,-157.85466687,4.64749283,164.46245500,25.51564653,0.84489737
0.05352896,-0.29581867,-3.03743781,-1.21687202,2.58952076

>  <Name>
1q8n_lig

>  <RI>
0

>  <Rbt.Current_Directory>
/home/itssahil/PROJECTS/Mol_Feturizer/New_Systems/rnas/1q8n

>  <Rbt.Executable>
rbdock ($Id: //depot/dev/client3/rdock/2013.1/src/exe/rbdock.cxx#4 $)

>  <Rbt.Library>
libRbt.so (2013.1, Build901 2013/11/27)

>  <Rbt.Parameter_File>
/export/apps/rDock/src/rDock_2013.1_src/data/scripts/dock_solv.prm

>  <Rbt.Receptor>
prm/pocket_docking_4.prm

>  <SCORE>
-50.4019

>  <SCORE.INTER>
-52.046

>  <SCORE.INTER.CONST>
1

>  <SCORE.INTER.POLAR>
0

>  <SCORE.INTER.ROT>
5

>  <SCORE.INTER.SOLV>
9.70069

>  <SCORE.INTER.VDW>
-44.8642

>  <SCORE.INTER.norm>
-2.08184

>  <SCORE.INTRA>
1.64408

>  <SCORE.INTRA.DIHEDRAL>
3.28944

>  <SCORE.INTRA.DIHEDRAL.0>
2.1627

>  <SCORE.INTRA.POLAR>
0

>  <SCORE.INTRA.POLAR.0>
0

>  <SCORE.INTRA.REPUL>
0

>  <SCORE.INTRA.REPUL.0>
0

>  <SCORE.INTRA.SOLV>
0.0668928

>  <SCORE.INTRA.SOLV.lig_0>
-5.95779

>  <SCORE.INTRA.VDW>
-0.0340828

>  <SCORE.INTRA.VDW.0>
3.81702

>  <SCORE.INTRA.norm>
0.0657634

>  <SCORE.RESTR>
0

>  <SCORE.RESTR.CAVITY>
0

>  <SCORE.RESTR.norm>
0

>  <SCORE.SYSTEM>
0

>  <SCORE.SYSTEM.CONST>
0

>  <SCORE.SYSTEM.DIHEDRAL>
0

>  <SCORE.SYSTEM.SOLV>
0

>  <SCORE.SYSTEM.norm>
0

>  <SCORE.heavy>
25

>  <SCORE.norm>
-2.01608

>  <RMSD>
1.694

$$$$
1q8n_lig
 OpenBabel11021811413D
libRbt.so/2013.1/901 2013/11/27
 25 27  0  0  0  0  0  0  0  0999 V2000
    0.8921    0.7471   -0.7913 C   0  0  0  0  0  0  0  0  0  0  0  0
    0.9069    2.0662   -1.7532 C   0  0  0  0  0  0  0  0  0  0  0  0
    2.6342   -4.4611   -3.0851 N   0  0  0  0  0  0  0  0  0  0  0  0
    1.0764    2.0103   -3.0960 C   0  0  0  0  0  0  0  0  0  0  0  0
   -1.0114    1.2229    4.8711 N   0  0  0  0  0  0  0  0  0  0  0  0
    1.0893    3.2327   -3.9323 C   0  0  0  0  0  0  0  0  0  0  0  0
    0.9271    4.4443   -3.3530 C   0  0  0  0  0  0  0  0  0  0  0  0
    0.7381    4.5260   -1.9235 C   0  0  0  0  0  0  0  0  0  0  0  0
    0.7303    3.4169   -1.1800 C   0  0  0  0  0  0  0  0  0  0  0  0
    1.3699   -0.6779   -1.4248 C   0  0  0  0  0  0  0  0  0  0  0  0
    1.9431   -0.7440   -2.6444 C   0  0  0  0  0  0  0  0  0  0  0  0
    2.3854   -2.0361   -3.2384 C   0  0  0  0  0  0  0  0  0  0  0  0
    2.2206   -3.1975   -2.5504 C   0  0  0  0  0  0  0  0  0  0  0  0
    1.5974   -3.1407   -1.2146 C   0  0  0  0  0  0  0  0  0  0  0  0
    1.2034   -1.9694   -0.6957 C   0  0  0  0  0  0  0  0  0  0  0  0
    0.4068    0.8273    0.7920 C   0  0  0  0  0  0  0  0  0  0  0  0
   -0.4418    1.9788    1.2561 C   0  0  0  0  0  0  0  0  0  0  0  0
   -0.8737    2.0976    2.5146 C   0  0  0  0  0  0  0  0  0  0  0  0
   -0.5335    1.0908    3.5267 C   0  0  0  0  0  0  0  0  0  0  0  0
    0.2311    0.0400    3.1639 C   0  0  0  0  0  0  0  0  0  0  0  0
    0.7211   -0.1049    1.7519 C   0  0  0  0  0  0  0  0  0  0  0  0
    2.0874   -5.7011   -2.6247 C   0  0  0  0  0  0  0  0  0  0  0  0
    3.6246   -4.5164   -4.1153 C   0  0  0  0  0  0  0  0  0  0  0  0
   -1.4743    2.4918    5.3549 C   0  0  0  0  0  0  0  0  0  0  0  0
   -1.0465    0.0910    5.7695 C   0  0  0  0  0  0  0  0  0  0  0  0
  1  2  1  0  0  0  0
  1 10  1  0  0  0  0
  1 16  1  0  0  0  0
  2  4  2  0  0  0  0
  2  9  1  0  0  0  0
  4  6  1  0  0  0  0
  6  7  2  0  0  0  0
  7  8  1  0  0  0  0
  8  9  2  0  0  0  0
 10 11  2  0  0  0  0
 10 15  1  0  0  0  0
 11 12  1  0  0  0  0
 12 13  2  0  0  0  0
 13  3  1  0  0  0  0
 13 14  1  0  0  0  0
 14 15  2  0  0  0  0
 16 17  2  0  0  0  0
 16 21  1  0  0  0  0
 17 18  1  0  0  0  0
 18 19  2  0  0  0  0
 19  5  1  0  0  0  0
 19 20  1  0  0  0  0
 20 21  2  0  0  0  0
 22  3  1  0  0  0  0
 23  3  1  0  0  0  0
 24  5  1  0  0  0  0
 25  5  1  0  0  0  0
M  END
>  <CHROM.1>
11.45529029,9.37039450,20.04858498,-158.25241903,-18.61472476,0.85420168
0.09052976,-0.30327829,-0.05882780,1.21075100,-0.56257424

>  <Name>
1q8n_lig

>  <RI>
0

>  <Rbt.Current_Directory>
/home/itssahil/PROJECTS/Mol_Feturizer/New_Systems/rnas/1q8n

>  <Rbt.Executable>
rbdock ($Id: //depot/dev/client3/rdock/2013.1/src/exe/rbdock.cxx#4 $)

>  <Rbt.Library>
libRbt.so (2013.1, Build901 2013/11/27)

>  <Rbt.Parameter_File>
/export/apps/rDock/src/rDock_2013.1_src/data/scripts/dock_solv.prm

>  <Rbt.Receptor>
prm/pocket_docking_8.prm

>  <SCORE>
-49.5758

>  <SCORE.INTER>
-51.2858

>  <SCORE.INTER.CONST>
1

>  <SCORE.INTER.POLAR>
0

>  <SCORE.INTER.ROT>
5

>  <SCORE.INTER.SOLV>
9.63831

>  <SCORE.INTER.VDW>
-44.3366

>  <SCORE.INTER.norm>
-2.05143

>  <SCORE.INTRA>
1.70996

>  <SCORE.INTRA.DIHEDRAL>
3.05889

>  <SCORE.INTRA.DIHEDRAL.0>
2.1627

>  <SCORE.INTRA.POLAR>
0

>  <SCORE.INTRA.POLAR.0>
0

>  <SCORE.INTRA.REPUL>
0

>  <SCORE.INTRA.REPUL.0>
0

>  <SCORE.INTRA.SOLV>
0.0660387

>  <SCORE.INTRA.SOLV.lig_0>
-5.95779

>  <SCORE.INTRA.VDW>
0.1475

>  <SCORE.INTRA.VDW.0>
3.81702

>  <SCORE.INTRA.norm>
0.0683986

>  <SCORE.RESTR>
0

>  <SCORE.RESTR.CAVITY>
0

>  <SCORE.RESTR.norm>
0

>  <SCORE.SYSTEM>
0

>  <SCORE.SYSTEM.CONST>
0

>  <SCORE.SYSTEM.DIHEDRAL>
0

>  <SCORE.SYSTEM.SOLV>
0

>  <SCORE.SYSTEM.norm>
0

>  <SCORE.heavy>
25

>  <SCORE.norm>
-1.98303

>  <RMSD>
1.695

$$$$
1q8n_lig
 OpenBabel11021811403D
libRbt.so/2013.1/901 2013/11/27
 25 27  0  0  0  0  0  0  0  0999 V2000
    0.8712    0.7099   -0.7709 C   0  0  0  0  0  0  0  0  0  0  0  0
    0.9005    2.0443   -1.7110 C   0  0  0  0  0  0  0  0  0  0  0  0
   -0.9338    1.2905    4.8706 N   0  0  0  0  0  0  0  0  0  0  0  0
    1.0708    2.0087   -3.0543 C   0  0  0  0  0  0  0  0  0  0  0  0
    2.6290   -4.5452   -3.0527 N   0  0  0  0  0  0  0  0  0  0  0  0
    1.0972    3.2444   -3.8706 C   0  0  0  0  0  0  0  0  0  0  0  0
    0.9468    4.4480   -3.2716 C   0  0  0  0  0  0  0  0  0  0  0  0
    0.7572    4.5082   -1.8411 C   0  0  0  0  0  0  0  0  0  0  0  0
    0.7372    3.3872   -1.1159 C   0  0  0  0  0  0  0  0  0  0  0  0
    0.3779    0.8638    0.7761 C   0  0  0  0  0  0  0  0  0  0  0  0
    0.7298   -0.0385    1.7155 C   0  0  0  0  0  0  0  0  0  0  0  0
    0.2887    0.0862    3.1324 C   0  0  0  0  0  0  0  0  0  0  0  0
   -0.4898    1.1326    3.5173 C   0  0  0  0  0  0  0  0  0  0  0  0
   -0.8808    2.1284    2.5017 C   0  0  0  0  0  0  0  0  0  0  0  0
   -0.4765    2.0000    1.2302 C   0  0  0  0  0  0  0  0  0  0  0  0
    1.3274   -0.7752   -1.3497 C   0  0  0  0  0  0  0  0  0  0  0  0
    1.9233   -0.8903   -2.7257 C   0  0  0  0  0  0  0  0  0  0  0  0
    2.3199   -2.0544   -3.2470 C   0  0  0  0  0  0  0  0  0  0  0  0
    2.1902   -3.3036   -2.4878 C   0  0  0  0  0  0  0  0  0  0  0  0
    1.6559   -3.2570   -1.2497 C   0  0  0  0  0  0  0  0  0  0  0  0
    1.2079   -1.9539   -0.6527 C   0  0  0  0  0  0  0  0  0  0  0  0
   -0.8647    0.2271    5.8262 C   0  0  0  0  0  0  0  0  0  0  0  0
   -1.4679    2.5420    5.3107 C   0  0  0  0  0  0  0  0  0  0  0  0
    2.0591   -5.7852   -2.6098 C   0  0  0  0  0  0  0  0  0  0  0  0
    3.6449   -4.5845   -4.0803 C   0  0  0  0  0  0  0  0  0  0  0  0
  1  2  1  0  0  0  0
  1 10  1  0  0  0  0
  1 16  1  0  0  0  0
  2  4  2  0  0  0  0
  2  9  1  0  0  0  0
  4  6  1  0  0  0  0
  6  7  2  0  0  0  0
  7  8  1  0  0  0  0
  8  9  2  0  0  0  0
 10 11  2  0  0  0  0
 10 15  1  0  0  0  0
 11 12  1  0  0  0  0
 12 13  2  0  0  0  0
 13  3  1  0  0  0  0
 13 14  1  0  0  0  0
 14 15  2  0  0  0  0
 16 17  2  0  0  0  0
 16 21  1  0  0  0  0
 17 18  1  0  0  0  0
 18 19  2  0  0  0  0
 19  5  1  0  0  0  0
 19 20  1  0  0  0  0
 20 21  2  0  0  0  0
 22  3  1  0  0  0  0
 23  3  1  0  0  0  0
 24  5  1  0  0  0  0
 25  5  1  0  0  0  0
M  END
>  <CHROM.1>
-168.47499533,-157.78403952,6.62966087,-15.01751384,-155.03542150,0.86426819
0.07928338,-0.28704525,-3.05904829,-1.21942109,2.56940585

>  <Name>
1q8n_lig

>  <RI>
0

>  <Rbt.Current_Directory>
/home/itssahil/PROJECTS/Mol_Feturizer/New_Systems/rnas/1q8n

>  <Rbt.Executable>
rbdock ($Id: //depot/dev/client3/rdock/2013.1/src/exe/rbdock.cxx#4 $)

>  <Rbt.Library>
libRbt.so (2013.1, Build901 2013/11/27)

>  <Rbt.Parameter_File>
/export/apps/rDock/src/rDock_2013.1_src/data/scripts/dock_solv.prm

>  <Rbt.Receptor>
prm/blind_docking_100.prm

>  <SCORE>
-50.3387

>  <SCORE.INTER>
-51.9283

>  <SCORE.INTER.CONST>
1

>  <SCORE.INTER.POLAR>
0

>  <SCORE.INTER.ROT>
5

>  <SCORE.INTER.SOLV>
9.72476

>  <SCORE.INTER.VDW>
-44.7938

>  <SCORE.INTER.norm>
-2.07713

>  <SCORE.INTRA>
1.5895

>  <SCORE.INTRA.DIHEDRAL>
3.13531

>  <SCORE.INTRA.DIHEDRAL.0>
2.1627

>  <SCORE.INTRA.POLAR>
0

>  <SCORE.INTRA.POLAR.0>
0

>  <SCORE.INTRA.REPUL>
0

>  <SCORE.INTRA.REPUL.0>
0

>  <SCORE.INTRA.SOLV>
0.0657761

>  <SCORE.INTRA.SOLV.lig_0>
-5.95779

>  <SCORE.INTRA.VDW>
-0.0110398

>  <SCORE.INTRA.VDW.0>
3.81702

>  <SCORE.INTRA.norm>
0.0635801

>  <SCORE.RESTR>
0

>  <SCORE.RESTR.CAVITY>
0

>  <SCORE.RESTR.norm>
0

>  <SCORE.SYSTEM>
0

>  <SCORE.SYSTEM.CONST>
0

>  <SCORE.SYSTEM.DIHEDRAL>
0

>  <SCORE.SYSTEM.SOLV>
0

>  <SCORE.SYSTEM.norm>
0

>  <SCORE.heavy>
25

>  <SCORE.norm>
-2.01355

>  <RMSD>
1.696

$$$$
1q8n_lig
 OpenBabel11021811403D
libRbt.so/2013.1/901 2013/11/27
 25 27  0  0  0  0  0  0  0  0999 V2000
    0.8918    0.7515   -0.7745 C   0  0  0  0  0  0  0  0  0  0  0  0
    0.9086    2.0667   -1.7417 C   0  0  0  0  0  0  0  0  0  0  0  0
    2.6079   -4.4722   -3.0528 N   0  0  0  0  0  0  0  0  0  0  0  0
    1.0873    2.0059   -3.0830 C   0  0  0  0  0  0  0  0  0  0  0  0
   -0.9972    1.2528    4.8905 N   0  0  0  0  0  0  0  0  0  0  0  0
    1.1016    3.2249   -3.9243 C   0  0  0  0  0  0  0  0  0  0  0  0
    0.9314    4.4384   -3.3511 C   0  0  0  0  0  0  0  0  0  0  0  0
    0.7325    4.5252   -1.9232 C   0  0  0  0  0  0  0  0  0  0  0  0
    0.7234    3.4191   -1.1752 C   0  0  0  0  0  0  0  0  0  0  0  0
    1.3625   -0.6778   -1.4038 C   0  0  0  0  0  0  0  0  0  0  0  0
    1.9327   -0.7507   -2.6244 C   0  0  0  0  0  0  0  0  0  0  0  0
    2.3685   -2.0467   -3.2146 C   0  0  0  0  0  0  0  0  0  0  0  0
    2.2006   -3.2049   -2.5220 C   0  0  0  0  0  0  0  0  0  0  0  0
    1.5805   -3.1407   -1.1850 C   0  0  0  0  0  0  0  0  0  0  0  0
    1.1924   -1.9659   -0.6696 C   0  0  0  0  0  0  0  0  0  0  0  0
    0.4116    0.8397    0.8098 C   0  0  0  0  0  0  0  0  0  0  0  0
   -0.4567    1.9800    1.2652 C   0  0  0  0  0  0  0  0  0  0  0  0
   -0.8857    2.1043    2.5241 C   0  0  0  0  0  0  0  0  0  0  0  0
   -0.5224    1.1151    3.5455 C   0  0  0  0  0  0  0  0  0  0  0  0
    0.2605    0.0750    3.1909 C   0  0  0  0  0  0  0  0  0  0  0  0
    0.7473   -0.0760    1.7784 C   0  0  0  0  0  0  0  0  0  0  0  0
    3.5510   -4.5843   -4.1236 C   0  0  0  0  0  0  0  0  0  0  0  0
    2.0715   -5.6833   -2.5138 C   0  0  0  0  0  0  0  0  0  0  0  0
   -1.0094    0.1228    5.7745 C   0  0  0  0  0  0  0  0  0  0  0  0
   -1.4677    2.5236    5.3937 C   0  0  0  0  0  0  0  0  0  0  0  0
  1  2  1  0  0  0  0
  1 10  1  0  0  0  0
  1 16  1  0  0  0  0
  2  4  2  0  0  0  0
  2  9  1  0  0  0  0
  4  6  1  0  0  0  0
  6  7  2  0  0  0  0
  7  8  1  0  0  0  0
  8  9  2  0  0  0  0
 10 11  2  0  0  0  0
 10 15  1  0  0  0  0
 11 12  1  0  0  0  0
 12 13  2  0  0  0  0
 13  3  1  0  0  0  0
 13 14  1  0  0  0  0
 14 15  2  0  0  0  0
 16 17  2  0  0  0  0
 16 21  1  0  0  0  0
 17 18  1  0  0  0  0
 18 19  2  0  0  0  0
 19  5  1  0  0  0  0
 19 20  1  0  0  0  0
 20 21  2  0  0  0  0
 22  3  1  0  0  0  0
 23  3  1  0  0  0  0
 24  5  1  0  0  0  0
 25  5  1  0  0  0  0
M  END
>  <CHROM.1>
10.76483209,9.42156091,21.39919621,19.04400662,160.55942749,0.85077120,0.09484112
-0.28234885,-0.06053797,1.21512792,-0.56540450

>  <Name>
1q8n_lig

>  <RI>
0

>  <Rbt.Current_Directory>
/home/itssahil/PROJECTS/Mol_Feturizer/New_Systems/rnas/1q8n

>  <Rbt.Executable>
rbdock ($Id: //depot/dev/client3/rdock/2013.1/src/exe/rbdock.cxx#4 $)

>  <Rbt.Library>
libRbt.so (2013.1, Build901 2013/11/27)

>  <Rbt.Parameter_File>
/export/apps/rDock/src/rDock_2013.1_src/data/scripts/dock_solv.prm

>  <Rbt.Receptor>
prm/blind_docking_20.prm

>  <SCORE>
-49.6874

>  <SCORE.INTER>
-51.3757

>  <SCORE.INTER.CONST>
1

>  <SCORE.INTER.POLAR>
0

>  <SCORE.INTER.ROT>
5

>  <SCORE.INTER.SOLV>
9.67738

>  <SCORE.INTER.VDW>
-44.4096

>  <SCORE.INTER.norm>
-2.05503

>  <SCORE.INTRA>
1.68833

>  <SCORE.INTRA.DIHEDRAL>
2.7781

>  <SCORE.INTRA.DIHEDRAL.0>
2.1627

>  <SCORE.INTRA.POLAR>
0

>  <SCORE.INTRA.POLAR.0>
0

>  <SCORE.INTRA.REPUL>
0

>  <SCORE.INTRA.REPUL.0>
0

>  <SCORE.INTRA.SOLV>
0.065424

>  <SCORE.INTRA.SOLV.lig_0>
-5.95779

>  <SCORE.INTRA.VDW>
0.266569

>  <SCORE.INTRA.VDW.0>
3.81702

>  <SCORE.INTRA.norm>
0.0675332

>  <SCORE.RESTR>
0

>  <SCORE.RESTR.CAVITY>
0

>  <SCORE.RESTR.norm>
0

>  <SCORE.SYSTEM>
0

>  <SCORE.SYSTEM.CONST>
0

>  <SCORE.SYSTEM.DIHEDRAL>
0

>  <SCORE.SYSTEM.SOLV>
0

>  <SCORE.SYSTEM.norm>
0

>  <SCORE.heavy>
25

>  <SCORE.norm>
-1.9875

>  <RMSD>
1.696

$$$$
1q8n_lig
 OpenBabel11021811413D
libRbt.so/2013.1/901 2013/11/27
 25 27  0  0  0  0  0  0  0  0999 V2000
    0.8908    0.7505   -0.7779 C   0  0  0  0  0  0  0  0  0  0  0  0
    0.9105    2.0676   -1.7425 C   0  0  0  0  0  0  0  0  0  0  0  0
    2.5906   -4.4734   -3.0679 N   0  0  0  0  0  0  0  0  0  0  0  0
    1.0827    2.0085   -3.0848 C   0  0  0  0  0  0  0  0  0  0  0  0
   -0.9924    1.2454    4.8896 N   0  0  0  0  0  0  0  0  0  0  0  0
    1.1000    3.2291   -3.9237 C   0  0  0  0  0  0  0  0  0  0  0  0
    0.9390    4.4423   -3.3472 C   0  0  0  0  0  0  0  0  0  0  0  0
    0.7472    4.5274   -1.9183 C   0  0  0  0  0  0  0  0  0  0  0  0
    0.7354    3.4198   -1.1725 C   0  0  0  0  0  0  0  0  0  0  0  0
    1.3569   -0.6788   -1.4104 C   0  0  0  0  0  0  0  0  0  0  0  0
    1.8978   -0.7546   -2.6441 C   0  0  0  0  0  0  0  0  0  0  0  0
    2.3289   -2.0507   -3.2374 C   0  0  0  0  0  0  0  0  0  0  0  0
    2.1867   -3.2061   -2.5345 C   0  0  0  0  0  0  0  0  0  0  0  0
    1.5988   -3.1387   -1.1832 C   0  0  0  0  0  0  0  0  0  0  0  0
    1.2144   -1.9639   -0.6650 C   0  0  0  0  0  0  0  0  0  0  0  0
    0.4123    0.8370    0.8070 C   0  0  0  0  0  0  0  0  0  0  0  0
   -0.4566    1.9761    1.2643 C   0  0  0  0  0  0  0  0  0  0  0  0
   -0.8843    2.0990    2.5238 C   0  0  0  0  0  0  0  0  0  0  0  0
   -0.5190    1.1093    3.5440 C   0  0  0  0  0  0  0  0  0  0  0  0
    0.2645    0.0703    3.1876 C   0  0  0  0  0  0  0  0  0  0  0  0
    0.7499   -0.0792    1.7745 C   0  0  0  0  0  0  0  0  0  0  0  0
    2.0659   -5.7111   -2.5767 C   0  0  0  0  0  0  0  0  0  0  0  0
    3.5481   -4.5347   -4.1284 C   0  0  0  0  0  0  0  0  0  0  0  0
   -1.4799    2.5092    5.3625 C   0  0  0  0  0  0  0  0  0  0  0  0
   -0.9984    0.1227    5.8000 C   0  0  0  0  0  0  0  0  0  0  0  0
  1  2  1  0  0  0  0
  1 10  1  0  0  0  0
  1 16  1  0  0  0  0
  2  4  2  0  0  0  0
  2  9  1  0  0  0  0
  4  6  1  0  0  0  0
  6  7  2  0  0  0  0
  7  8  1  0  0  0  0
  8  9  2  0  0  0  0
 10 11  2  0  0  0  0
 10 15  1  0  0  0  0
 11 12  1  0  0  0  0
 12 13  2  0  0  0  0
 13  3  1  0  0  0  0
 13 14  1  0  0  0  0
 14 15  2  0  0  0  0
 16 17  2  0  0  0  0
 16 21  1  0  0  0  0
 17 18  1  0  0  0  0
 18 19  2  0  0  0  0
 19  5  1  0  0  0  0
 19 20  1  0  0  0  0
 20 21  2  0  0  0  0
 22  3  1  0  0  0  0
 23  3  1  0  0  0  0
 24  5  1  0  0  0  0
 25  5  1  0  0  0  0
M  END
>  <CHROM.1>
11.02657891,7.89005103,21.62464068,-158.59027110,-18.51020365,0.84935616
0.09411867,-0.28873412,-0.06173225,1.21686807,-0.56164517

>  <Name>
1q8n_lig

>  <RI>
0

>  <Rbt.Current_Directory>
/home/itssahil/PROJECTS/Mol_Feturizer/New_Systems/rnas/1q8n

>  <Rbt.Executable>
rbdock ($Id: //depot/dev/client3/rdock/2013.1/src/exe/rbdock.cxx#4 $)

>  <Rbt.Library>
libRbt.so (2013.1, Build901 2013/11/27)

>  <Rbt.Parameter_File>
/export/apps/rDock/src/rDock_2013.1_src/data/scripts/dock_solv.prm

>  <Rbt.Receptor>
prm/pocket_docking_6.prm

>  <SCORE>
-49.634

>  <SCORE.INTER>
-51.3427

>  <SCORE.INTER.CONST>
1

>  <SCORE.INTER.POLAR>
0

>  <SCORE.INTER.ROT>
5

>  <SCORE.INTER.SOLV>
9.64946

>  <SCORE.INTER.VDW>
-44.3783

>  <SCORE.INTER.norm>
-2.05371

>  <SCORE.INTRA>
1.70869

>  <SCORE.INTRA.DIHEDRAL>
2.99317

>  <SCORE.INTRA.DIHEDRAL.0>
2.1627

>  <SCORE.INTRA.POLAR>
0

>  <SCORE.INTRA.POLAR.0>
0

>  <SCORE.INTRA.REPUL>
0

>  <SCORE.INTRA.REPUL.0>
0

>  <SCORE.INTRA.SOLV>
0.065635

>  <SCORE.INTRA.SOLV.lig_0>
-5.95779

>  <SCORE.INTRA.VDW>
0.179291

>  <SCORE.INTRA.VDW.0>
3.81702

>  <SCORE.INTRA.norm>
0.0683477

>  <SCORE.RESTR>
0

>  <SCORE.RESTR.CAVITY>
0

>  <SCORE.RESTR.norm>
0

>  <SCORE.SYSTEM>
0

>  <SCORE.SYSTEM.CONST>
0

>  <SCORE.SYSTEM.DIHEDRAL>
0

>  <SCORE.SYSTEM.SOLV>
0

>  <SCORE.SYSTEM.norm>
0

>  <SCORE.heavy>
25

>  <SCORE.norm>
-1.98536

>  <RMSD>
1.699

$$$$
1q8n_lig
 OpenBabel11021811403D
libRbt.so/2013.1/901 2013/11/27
 25 27  0  0  0  0  0  0  0  0999 V2000
    0.8497    0.6843   -0.7809 C   0  0  0  0  0  0  0  0  0  0  0  0
    0.8893    2.0236   -1.7137 C   0  0  0  0  0  0  0  0  0  0  0  0
   -1.0022    1.2386    4.8481 N   0  0  0  0  0  0  0  0  0  0  0  0
    1.0816    1.9953   -3.0543 C   0  0  0  0  0  0  0  0  0  0  0  0
    2.6149   -4.5622   -3.0769 N   0  0  0  0  0  0  0  0  0  0  0  0
    1.1166    3.2352   -3.8638 C   0  0  0  0  0  0  0  0  0  0  0  0
    0.9519    4.4352   -3.2614 C   0  0  0  0  0  0  0  0  0  0  0  0
    0.7388    4.4876   -1.8339 C   0  0  0  0  0  0  0  0  0  0  0  0
    0.7113    3.3628   -1.1147 C   0  0  0  0  0  0  0  0  0  0  0  0
    0.3437    0.8311    0.7627 C   0  0  0  0  0  0  0  0  0  0  0  0
    0.7116   -0.0596    1.7070 C   0  0  0  0  0  0  0  0  0  0  0  0
    0.2592    0.0587    3.1209 C   0  0  0  0  0  0  0  0  0  0  0  0
   -0.5465    1.0873    3.4978 C   0  0  0  0  0  0  0  0  0  0  0  0
   -0.9552    2.0704    2.4768 C   0  0  0  0  0  0  0  0  0  0  0  0
   -0.5404    1.9478    1.2081 C   0  0  0  0  0  0  0  0  0  0  0  0
    1.3083   -0.7986   -1.3636 C   0  0  0  0  0  0  0  0  0  0  0  0
    1.9005   -0.9096   -2.7414 C   0  0  0  0  0  0  0  0  0  0  0  0
    2.2988   -2.0718   -3.2659 C   0  0  0  0  0  0  0  0  0  0  0  0
    2.1744   -3.3227   -2.5085 C   0  0  0  0  0  0  0  0  0  0  0  0
    1.6435   -3.2796   -1.2689 C   0  0  0  0  0  0  0  0  0  0  0  0
    1.1938   -1.9788   -0.6684 C   0  0  0  0  0  0  0  0  0  0  0  0
   -1.5157    2.4780    5.3466 C   0  0  0  0  0  0  0  0  0  0  0  0
   -0.9554    0.1305    5.7510 C   0  0  0  0  0  0  0  0  0  0  0  0
    2.0571   -5.8051   -2.6271 C   0  0  0  0  0  0  0  0  0  0  0  0
    3.6205   -4.5963   -4.1147 C   0  0  0  0  0  0  0  0  0  0  0  0
  1  2  1  0  0  0  0
  1 10  1  0  0  0  0
  1 16  1  0  0  0  0
  2  4  2  0  0  0  0
  2  9  1  0  0  0  0
  4  6  1  0  0  0  0
  6  7  2  0  0  0  0
  7  8  1  0  0  0  0
  8  9  2  0  0  0  0
 10 11  2  0  0  0  0
 10 15  1  0  0  0  0
 11 12  1  0  0  0  0
 12 13  2  0  0  0  0
 13  3  1  0  0  0  0
 13 14  1  0  0  0  0
 14 15  2  0  0  0  0
 16 17  2  0  0  0  0
 16 21  1  0  0  0  0
 17 18  1  0  0  0  0
 18 19  2  0  0  0  0
 19  5  1  0  0  0  0
 19 20  1  0  0  0  0
 20 21  2  0  0  0  0
 22  3  1  0  0  0  0
 23  3  1  0  0  0  0
 24  5  1  0  0  0  0
 25  5  1  0  0  0  0
M  END
>  <CHROM.1>
-169.02647543,-156.22634393,5.91279835,161.81553352,-155.52741520,0.83699579
0.04872362,-0.30048604,-3.04482085,-1.21347041,2.58915487

>  <Name>
1q8n_lig

>  <RI>
0

>  <Rbt.Current_Directory>
/home/itssahil/PROJECTS/Mol_Feturizer/New_Systems/rnas/1q8n

>  <Rbt.Executable>
rbdock ($Id: //depot/dev/client3/rdock/2013.1/src/exe/rbdock.cxx#4 $)

>  <Rbt.Library>
libRbt.so (2013.1, Build901 2013/11/27)

>  <Rbt.Parameter_File>
/export/apps/rDock/src/rDock_2013.1_src/data/scripts/dock_solv.prm

>  <Rbt.Receptor>
prm/blind_docking_60.prm

>  <SCORE>
-50.3987

>  <SCORE.INTER>
-52.0114

>  <SCORE.INTER.CONST>
1

>  <SCORE.INTER.POLAR>
0

>  <SCORE.INTER.ROT>
5

>  <SCORE.INTER.SOLV>
9.68005

>  <SCORE.INTER.VDW>
-44.8343

>  <SCORE.INTER.norm>
-2.08046

>  <SCORE.INTRA>
1.6127

>  <SCORE.INTRA.DIHEDRAL>
3.43906

>  <SCORE.INTRA.DIHEDRAL.0>
2.1627

>  <SCORE.INTRA.POLAR>
0

>  <SCORE.INTRA.POLAR.0>
0

>  <SCORE.INTRA.REPUL>
0

>  <SCORE.INTRA.REPUL.0>
0

>  <SCORE.INTRA.SOLV>
0.0649044

>  <SCORE.INTRA.SOLV.lig_0>
-5.95779

>  <SCORE.INTRA.VDW>
-0.139277

>  <SCORE.INTRA.VDW.0>
3.81702

>  <SCORE.INTRA.norm>
0.0645082

>  <SCORE.RESTR>
0

>  <SCORE.RESTR.CAVITY>
0

>  <SCORE.RESTR.norm>
0

>  <SCORE.SYSTEM>
0

>  <SCORE.SYSTEM.CONST>
0

>  <SCORE.SYSTEM.DIHEDRAL>
0

>  <SCORE.SYSTEM.SOLV>
0

>  <SCORE.SYSTEM.norm>
0

>  <SCORE.heavy>
25

>  <SCORE.norm>
-2.01595

>  <RMSD>
1.703

$$$$
1q8n_lig
 OpenBabel11021811413D
libRbt.so/2013.1/901 2013/11/27
 25 27  0  0  0  0  0  0  0  0999 V2000
    0.8845    0.7357   -0.7817 C   0  0  0  0  0  0  0  0  0  0  0  0
    0.8945    2.0534   -1.7455 C   0  0  0  0  0  0  0  0  0  0  0  0
    2.6190   -4.4750   -3.0754 N   0  0  0  0  0  0  0  0  0  0  0  0
    1.0473    1.9948   -3.0902 C   0  0  0  0  0  0  0  0  0  0  0  0
   -0.9979    1.2161    4.8874 N   0  0  0  0  0  0  0  0  0  0  0  0
    1.0565    3.2160   -3.9284 C   0  0  0  0  0  0  0  0  0  0  0  0
    0.9077    4.4293   -3.3489 C   0  0  0  0  0  0  0  0  0  0  0  0
    0.7365    4.5139   -1.9173 C   0  0  0  0  0  0  0  0  0  0  0  0
    0.7319    3.4058   -1.1722 C   0  0  0  0  0  0  0  0  0  0  0  0
    1.3601   -0.6900   -1.4152 C   0  0  0  0  0  0  0  0  0  0  0  0
    1.9199   -0.7587   -2.6408 C   0  0  0  0  0  0  0  0  0  0  0  0
    2.3601   -2.0515   -3.2349 C   0  0  0  0  0  0  0  0  0  0  0  0
    2.2070   -3.2108   -2.5409 C   0  0  0  0  0  0  0  0  0  0  0  0
    1.5985   -3.1512   -1.1984 C   0  0  0  0  0  0  0  0  0  0  0  0
    1.2062   -1.9793   -0.6795 C   0  0  0  0  0  0  0  0  0  0  0  0
    0.4060    0.8180    0.8036 C   0  0  0  0  0  0  0  0  0  0  0  0
   -0.4603    1.9576    1.2646 C   0  0  0  0  0  0  0  0  0  0  0  0
   -0.8877    2.0773    2.5245 C   0  0  0  0  0  0  0  0  0  0  0  0
   -0.5247    1.0833    3.5414 C   0  0  0  0  0  0  0  0  0  0  0  0
    0.2563    0.0437    3.1816 C   0  0  0  0  0  0  0  0  0  0  0  0
    0.7415   -0.1022    1.7680 C   0  0  0  0  0  0  0  0  0  0  0  0
    2.0833   -5.7153   -2.6028 C   0  0  0  0  0  0  0  0  0  0  0  0
    3.5964   -4.5307   -4.1179 C   0  0  0  0  0  0  0  0  0  0  0  0
   -0.9999    0.0851    5.7702 C   0  0  0  0  0  0  0  0  0  0  0  0
   -1.4769    2.4828    5.3928 C   0  0  0  0  0  0  0  0  0  0  0  0
  1  2  1  0  0  0  0
  1 10  1  0  0  0  0
  1 16  1  0  0  0  0
  2  4  2  0  0  0  0
  2  9  1  0  0  0  0
  4  6  1  0  0  0  0
  6  7  2  0  0  0  0
  7  8  1  0  0  0  0
  8  9  2  0  0  0  0
 10 11  2  0  0  0  0
 10 15  1  0  0  0  0
 11 12  1  0  0  0  0
 12 13  2  0  0  0  0
 13  3  1  0  0  0  0
 13 14  1  0  0  0  0
 14 15  2  0  0  0  0
 16 17  2  0  0  0  0
 16 21  1  0  0  0  0
 17 18  1  0  0  0  0
 18 19  2  0  0  0  0
 19  5  1  0  0  0  0
 19 20  1  0  0  0  0
 20 21  2  0  0  0  0
 22  3  1  0  0  0  0
 23  3  1  0  0  0  0
 24  5  1  0  0  0  0
 25  5  1  0  0  0  0
M  END
>  <CHROM.1>
12.00938868,8.92439220,21.06958054,-158.35872449,161.10162008,0.84890813
0.07909598,-0.29253147,-0.04827130,1.21415662,-0.57378935

>  <Name>
1q8n_lig

>  <RI>
0

>  <Rbt.Current_Directory>
/home/itssahil/PROJECTS/Mol_Feturizer/New_Systems/rnas/1q8n

>  <Rbt.Executable>
rbdock ($Id: //depot/dev/client3/rdock/2013.1/src/exe/rbdock.cxx#4 $)

>  <Rbt.Library>
libRbt.so (2013.1, Build901 2013/11/27)

>  <Rbt.Parameter_File>
/export/apps/rDock/src/rDock_2013.1_src/data/scripts/dock_solv.prm

>  <Rbt.Receptor>
prm/pocket_docking_8.prm

>  <SCORE>
-49.5232

>  <SCORE.INTER>
-51.2581

>  <SCORE.INTER.CONST>
1

>  <SCORE.INTER.POLAR>
0

>  <SCORE.INTER.ROT>
5

>  <SCORE.INTER.SOLV>
9.60499

>  <SCORE.INTER.VDW>
-44.3071

>  <SCORE.INTER.norm>
-2.05033

>  <SCORE.INTRA>
1.73488

>  <SCORE.INTRA.DIHEDRAL>
3.08116

>  <SCORE.INTRA.DIHEDRAL.0>
2.1627

>  <SCORE.INTRA.POLAR>
0

>  <SCORE.INTRA.POLAR.0>
0

>  <SCORE.INTRA.REPUL>
0

>  <SCORE.INTRA.REPUL.0>
0

>  <SCORE.INTRA.SOLV>
0.0651371

>  <SCORE.INTRA.SOLV.lig_0>
-5.95779

>  <SCORE.INTRA.VDW>
0.161733

>  <SCORE.INTRA.VDW.0>
3.81702

>  <SCORE.INTRA.norm>
0.0693952

>  <SCORE.RESTR>
0

>  <SCORE.RESTR.CAVITY>
0

>  <SCORE.RESTR.norm>
0

>  <SCORE.SYSTEM>
0

>  <SCORE.SYSTEM.CONST>
0

>  <SCORE.SYSTEM.DIHEDRAL>
0

>  <SCORE.SYSTEM.SOLV>
0

>  <SCORE.SYSTEM.norm>
0

>  <SCORE.heavy>
25

>  <SCORE.norm>
-1.98093

>  <RMSD>
1.703

$$$$
1q8n_lig
 OpenBabel11021811403D
libRbt.so/2013.1/901 2013/11/27
 25 27  0  0  0  0  0  0  0  0999 V2000
    0.8098    0.8396   -0.7582 C   0  0  0  0  0  0  0  0  0  0  0  0
    0.8571    2.1241   -1.7649 C   0  0  0  0  0  0  0  0  0  0  0  0
    2.5683   -4.4421   -2.8636 N   0  0  0  0  0  0  0  0  0  0  0  0
    1.0042    2.0168   -3.1071 C   0  0  0  0  0  0  0  0  0  0  0  0
   -0.9131    1.1678    4.9721 N   0  0  0  0  0  0  0  0  0  0  0  0
    1.0480    3.2090   -3.9850 C   0  0  0  0  0  0  0  0  0  0  0  0
    0.9378    4.4446   -3.4454 C   0  0  0  0  0  0  0  0  0  0  0  0
    0.7734    4.5813   -2.0171 C   0  0  0  0  0  0  0  0  0  0  0  0
    0.7373    3.4988   -1.2360 C   0  0  0  0  0  0  0  0  0  0  0  0
    1.2914   -0.6099   -1.3302 C   0  0  0  0  0  0  0  0  0  0  0  0
    1.1410   -1.7348   -0.6005 C   0  0  0  0  0  0  0  0  0  0  0  0
    1.5748   -3.0665   -1.1067 C   0  0  0  0  0  0  0  0  0  0  0  0
    2.1393   -3.1796   -2.3387 C   0  0  0  0  0  0  0  0  0  0  0  0
    2.3082   -1.9586   -3.1491 C   0  0  0  0  0  0  0  0  0  0  0  0
    1.9139   -0.7676   -2.6774 C   0  0  0  0  0  0  0  0  0  0  0  0
    0.2884    0.9785    0.8095 C   0  0  0  0  0  0  0  0  0  0  0  0
    0.7409   -0.0200    1.8389 C   0  0  0  0  0  0  0  0  0  0  0  0
    0.3655    0.0409    3.1194 C   0  0  0  0  0  0  0  0  0  0  0  0
   -0.5256    1.1060    3.5939 C   0  0  0  0  0  0  0  0  0  0  0  0
   -0.9659    2.0247    2.7093 C   0  0  0  0  0  0  0  0  0  0  0  0
   -0.5494    1.9672    1.2677 C   0  0  0  0  0  0  0  0  0  0  0  0
    2.0822   -5.6871   -2.3516 C   0  0  0  0  0  0  0  0  0  0  0  0
    3.5126   -4.4912   -3.9364 C   0  0  0  0  0  0  0  0  0  0  0  0
   -0.7667    0.0189    5.8188 C   0  0  0  0  0  0  0  0  0  0  0  0
   -1.4523    2.3799    5.5462 C   0  0  0  0  0  0  0  0  0  0  0  0
  1  2  1  0  0  0  0
  1 10  1  0  0  0  0
  1 16  1  0  0  0  0
  2  4  2  0  0  0  0
  2  9  1  0  0  0  0
  4  6  1  0  0  0  0
  6  7  2  0  0  0  0
  7  8  1  0  0  0  0
  8  9  2  0  0  0  0
 10 11  2  0  0  0  0
 10 15  1  0  0  0  0
 11 12  1  0  0  0  0
 12 13  2  0  0  0  0
 13  3  1  0  0  0  0
 13 14  1  0  0  0  0
 14 15  2  0  0  0  0
 16 17  2  0  0  0  0
 16 21  1  0  0  0  0
 17 18  1  0  0  0  0
 18 19  2  0  0  0  0
 19  5  1  0  0  0  0
 19 20  1  0  0  0  0
 20 21  2  0  0  0  0
 22  3  1  0  0  0  0
 23  3  1  0  0  0  0
 24  5  1  0  0  0  0
 25  5  1  0  0  0  0
M  END
>  <CHROM.1>
14.17659380,-172.70567413,-156.02775788,19.74827849,-17.80557217,0.83736675
0.11641365,-0.23503000,0.00788227,1.21971015,-0.60904691

>  <Name>
1q8n_lig

>  <RI>
0

>  <Rbt.Current_Directory>
/home/itssahil/PROJECTS/Mol_Feturizer/New_Systems/rnas/1q8n

>  <Rbt.Executable>
rbdock ($Id: //depot/dev/client3/rdock/2013.1/src/exe/rbdock.cxx#4 $)

>  <Rbt.Library>
libRbt.so (2013.1, Build901 2013/11/27)

>  <Rbt.Parameter_File>
/export/apps/rDock/src/rDock_2013.1_src/data/scripts/dock_solv.prm

>  <Rbt.Receptor>
prm/blind_docking_20.prm

>  <SCORE>
-48.7118

>  <SCORE.INTER>
-50.1766

>  <SCORE.INTER.CONST>
1

>  <SCORE.INTER.POLAR>
0

>  <SCORE.INTER.ROT>
5

>  <SCORE.INTER.SOLV>
9.58973

>  <SCORE.INTER.VDW>
-43.581

>  <SCORE.INTER.norm>
-2.00707

>  <SCORE.INTRA>
1.46484

>  <SCORE.INTRA.DIHEDRAL>
2.65913

>  <SCORE.INTRA.DIHEDRAL.0>
2.1627

>  <SCORE.INTRA.POLAR>
0

>  <SCORE.INTRA.POLAR.0>
0

>  <SCORE.INTRA.REPUL>
0

>  <SCORE.INTRA.REPUL.0>
0

>  <SCORE.INTRA.SOLV>
0.0625308

>  <SCORE.INTRA.SOLV.lig_0>
-5.95779

>  <SCORE.INTRA.VDW>
0.104008

>  <SCORE.INTRA.VDW.0>
3.81702

>  <SCORE.INTRA.norm>
0.0585936

>  <SCORE.RESTR>
0

>  <SCORE.RESTR.CAVITY>
0

>  <SCORE.RESTR.norm>
0

>  <SCORE.SYSTEM>
0

>  <SCORE.SYSTEM.CONST>
0

>  <SCORE.SYSTEM.DIHEDRAL>
0

>  <SCORE.SYSTEM.SOLV>
0

>  <SCORE.SYSTEM.norm>
0

>  <SCORE.heavy>
25

>  <SCORE.norm>
-1.94847

>  <RMSD>
1.706

$$$$
1q8n_lig
 OpenBabel11021811403D
libRbt.so/2013.1/901 2013/11/27
 25 27  0  0  0  0  0  0  0  0999 V2000
    0.8794    0.7476   -0.7489 C   0  0  0  0  0  0  0  0  0  0  0  0
    0.8975    2.0624   -1.7166 C   0  0  0  0  0  0  0  0  0  0  0  0
    2.6007   -4.4767   -3.0216 N   0  0  0  0  0  0  0  0  0  0  0  0
    1.0776    2.0010   -3.0578 C   0  0  0  0  0  0  0  0  0  0  0  0
   -1.0164    1.2544    4.9135 N   0  0  0  0  0  0  0  0  0  0  0  0
    1.0932    3.2196   -3.8996 C   0  0  0  0  0  0  0  0  0  0  0  0
    0.9227    4.4333   -3.3271 C   0  0  0  0  0  0  0  0  0  0  0  0
    0.7223    4.5209   -1.8995 C   0  0  0  0  0  0  0  0  0  0  0  0
    0.7122    3.4151   -1.1510 C   0  0  0  0  0  0  0  0  0  0  0  0
    1.3515   -0.6818   -1.3766 C   0  0  0  0  0  0  0  0  0  0  0  0
    1.9287   -0.7546   -2.5940 C   0  0  0  0  0  0  0  0  0  0  0  0
    2.3659   -2.0507   -3.1827 C   0  0  0  0  0  0  0  0  0  0  0  0
    2.1922   -3.2092   -2.4921 C   0  0  0  0  0  0  0  0  0  0  0  0
    1.5645   -3.1452   -1.1587 C   0  0  0  0  0  0  0  0  0  0  0  0
    1.1751   -1.9702   -0.6445 C   0  0  0  0  0  0  0  0  0  0  0  0
    0.3963    0.8366    0.8346 C   0  0  0  0  0  0  0  0  0  0  0  0
   -0.4524    1.9901    1.2934 C   0  0  0  0  0  0  0  0  0  0  0  0
   -0.8826    2.1159    2.5518 C   0  0  0  0  0  0  0  0  0  0  0  0
   -0.5404    1.1150    3.5691 C   0  0  0  0  0  0  0  0  0  0  0  0
    0.2244    0.0626    3.2112 C   0  0  0  0  0  0  0  0  0  0  0  0
    0.7125   -0.0901    1.7994 C   0  0  0  0  0  0  0  0  0  0  0  0
    2.0717   -5.7142   -2.5346 C   0  0  0  0  0  0  0  0  0  0  0  0
    3.5674   -4.5384   -4.0737 C   0  0  0  0  0  0  0  0  0  0  0  0
   -1.5713    2.4995    5.3608 C   0  0  0  0  0  0  0  0  0  0  0  0
   -0.9578    0.1533    5.8481 C   0  0  0  0  0  0  0  0  0  0  0  0
  1  2  1  0  0  0  0
  1 10  1  0  0  0  0
  1 16  1  0  0  0  0
  2  4  2  0  0  0  0
  2  9  1  0  0  0  0
  4  6  1  0  0  0  0
  6  7  2  0  0  0  0
  7  8  1  0  0  0  0
  8  9  2  0  0  0  0
 10 11  2  0  0  0  0
 10 15  1  0  0  0  0
 11 12  1  0  0  0  0
 12 13  2  0  0  0  0
 13  3  1  0  0  0  0
 13 14  1  0  0  0  0
 14 15  2  0  0  0  0
 16 17  2  0  0  0  0
 16 21  1  0  0  0  0
 17 18  1  0  0  0  0
 18 19  2  0  0  0  0
 19  5  1  0  0  0  0
 19 20  1  0  0  0  0
 20 21  2  0  0  0  0
 22  3  1  0  0  0  0
 23  3  1  0  0  0  0
 24  5  1  0  0  0  0
 25  5  1  0  0  0  0
M  END
>  <CHROM.1>
10.81775124,9.68477781,20.29040047,-159.98068999,-13.98063228,0.83926126
0.09317635,-0.25801378,-0.05959331,1.21304058,-0.56663079

>  <Name>
1q8n_lig

>  <RI>
0

>  <Rbt.Current_Directory>
/home/itssahil/PROJECTS/Mol_Feturizer/New_Systems/rnas/1q8n

>  <Rbt.Executable>
rbdock ($Id: //depot/dev/client3/rdock/2013.1/src/exe/rbdock.cxx#4 $)

>  <Rbt.Library>
libRbt.so (2013.1, Build901 2013/11/27)

>  <Rbt.Parameter_File>
/export/apps/rDock/src/rDock_2013.1_src/data/scripts/dock_solv.prm

>  <Rbt.Receptor>
prm/blind_docking_80.prm

>  <SCORE>
-49.5963

>  <SCORE.INTER>
-51.19

>  <SCORE.INTER.CONST>
1

>  <SCORE.INTER.POLAR>
0

>  <SCORE.INTER.ROT>
5

>  <SCORE.INTER.SOLV>
9.623

>  <SCORE.INTER.VDW>
-44.2677

>  <SCORE.INTER.norm>
-2.0476

>  <SCORE.INTRA>
1.59374

>  <SCORE.INTRA.DIHEDRAL>
2.24434

>  <SCORE.INTRA.DIHEDRAL.0>
2.1627

>  <SCORE.INTRA.POLAR>
0

>  <SCORE.INTRA.POLAR.0>
0

>  <SCORE.INTRA.REPUL>
0

>  <SCORE.INTRA.REPUL.0>
0

>  <SCORE.INTRA.SOLV>
0.0661706

>  <SCORE.INTRA.SOLV.lig_0>
-5.95779

>  <SCORE.INTRA.VDW>
0.438482

>  <SCORE.INTRA.VDW.0>
3.81702

>  <SCORE.INTRA.norm>
0.0637494

>  <SCORE.RESTR>
0

>  <SCORE.RESTR.CAVITY>
0

>  <SCORE.RESTR.norm>
0

>  <SCORE.SYSTEM>
0

>  <SCORE.SYSTEM.CONST>
0

>  <SCORE.SYSTEM.DIHEDRAL>
0

>  <SCORE.SYSTEM.SOLV>
0

>  <SCORE.SYSTEM.norm>
0

>  <SCORE.heavy>
25

>  <SCORE.norm>
-1.98385

>  <RMSD>
1.707

$$$$
1q8n_lig
 OpenBabel11021811403D
libRbt.so/2013.1/901 2013/11/27
 25 27  0  0  0  0  0  0  0  0999 V2000
    0.6569    0.8130   -0.5524 C   0  0  0  0  0  0  0  0  0  0  0  0
    0.7635    2.0871   -1.5677 C   0  0  0  0  0  0  0  0  0  0  0  0
   -1.2630    1.7974    4.9943 N   0  0  0  0  0  0  0  0  0  0  0  0
    0.9339    1.9642   -2.9059 C   0  0  0  0  0  0  0  0  0  0  0  0
    2.0700   -4.8121   -2.0605 N   0  0  0  0  0  0  0  0  0  0  0  0
    1.0317    3.1472   -3.7919 C   0  0  0  0  0  0  0  0  0  0  0  0
    0.9487    4.3900   -3.2641 C   0  0  0  0  0  0  0  0  0  0  0  0
    0.7603    4.5435   -1.8405 C   0  0  0  0  0  0  0  0  0  0  0  0
    0.6755    3.4691   -1.0519 C   0  0  0  0  0  0  0  0  0  0  0  0
    0.1324    1.0778    0.9691 C   0  0  0  0  0  0  0  0  0  0  0  0
    0.5093    0.2777    1.9880 C   0  0  0  0  0  0  0  0  0  0  0  0
    0.0403    0.5044    3.3832 C   0  0  0  0  0  0  0  0  0  0  0  0
   -0.7906    1.5433    3.6655 C   0  0  0  0  0  0  0  0  0  0  0  0
   -1.2096    2.4280    2.5620 C   0  0  0  0  0  0  0  0  0  0  0  0
   -0.7795    2.2085    1.3116 C   0  0  0  0  0  0  0  0  0  0  0  0
    1.0667   -0.7206   -1.0310 C   0  0  0  0  0  0  0  0  0  0  0  0
    1.1032   -1.8340   -0.0208 C   0  0  0  0  0  0  0  0  0  0  0  0
    1.4158   -3.0923   -0.3425 C   0  0  0  0  0  0  0  0  0  0  0  0
    1.7467   -3.4570   -1.7250 C   0  0  0  0  0  0  0  0  0  0  0  0
    1.7347   -2.4939   -2.6698 C   0  0  0  0  0  0  0  0  0  0  0  0
    1.3834   -1.0764   -2.3203 C   0  0  0  0  0  0  0  0  0  0  0  0
   -1.8472    3.0485    5.3711 C   0  0  0  0  0  0  0  0  0  0  0  0
   -1.1615    0.7850    5.9993 C   0  0  0  0  0  0  0  0  0  0  0  0
    2.8107   -5.1069   -3.2534 C   0  0  0  0  0  0  0  0  0  0  0  0
    1.6684   -5.9114   -1.2121 C   0  0  0  0  0  0  0  0  0  0  0  0
  1  2  1  0  0  0  0
  1 10  1  0  0  0  0
  1 16  1  0  0  0  0
  2  4  2  0  0  0  0
  2  9  1  0  0  0  0
  4  6  1  0  0  0  0
  6  7  2  0  0  0  0
  7  8  1  0  0  0  0
  8  9  2  0  0  0  0
 10 11  2  0  0  0  0
 10 15  1  0  0  0  0
 11 12  1  0  0  0  0
 12 13  2  0  0  0  0
 13  3  1  0  0  0  0
 13 14  1  0  0  0  0
 14 15  2  0  0  0  0
 16 17  2  0  0  0  0
 16 21  1  0  0  0  0
 17 18  1  0  0  0  0
 18 19  2  0  0  0  0
 19  5  1  0  0  0  0
 19 20  1  0  0  0  0
 20 21  2  0  0  0  0
 22  3  1  0  0  0  0
 23  3  1  0  0  0  0
 24  5  1  0  0  0  0
 25  5  1  0  0  0  0
M  END
>  <CHROM.1>
-166.87116241,-152.58298147,173.01683899,163.88653473,-159.01803653,0.56979827
0.16536108,0.07492527,-0.25837338,1.22837028,-0.52402631

>  <Name>
1q8n_lig

>  <RI>
0

>  <Rbt.Current_Directory>
/home/itssahil/PROJECTS/Mol_Feturizer/New_Systems/rnas/1q8n

>  <Rbt.Executable>
rbdock ($Id: //depot/dev/client3/rdock/2013.1/src/exe/rbdock.cxx#4 $)

>  <Rbt.Library>
libRbt.so (2013.1, Build901 2013/11/27)

>  <Rbt.Parameter_File>
/export/apps/rDock/src/rDock_2013.1_src/data/scripts/dock_solv.prm

>  <Rbt.Receptor>
prm/pocket_docking_3.prm

>  <SCORE>
-48.7991

>  <SCORE.INTER>
-50.2113

>  <SCORE.INTER.CONST>
1

>  <SCORE.INTER.POLAR>
0

>  <SCORE.INTER.ROT>
5

>  <SCORE.INTER.SOLV>
10.0161

>  <SCORE.INTER.VDW>
-43.7462

>  <SCORE.INTER.norm>
-2.00845

>  <SCORE.INTRA>
1.41219

>  <SCORE.INTRA.DIHEDRAL>
2.62317

>  <SCORE.INTRA.DIHEDRAL.0>
2.1627

>  <SCORE.INTRA.POLAR>
0

>  <SCORE.INTRA.POLAR.0>
0

>  <SCORE.INTRA.REPUL>
0

>  <SCORE.INTRA.REPUL.0>
0

>  <SCORE.INTRA.SOLV>
0.0615258

>  <SCORE.INTRA.SOLV.lig_0>
-5.95779

>  <SCORE.INTRA.VDW>
0.06984

>  <SCORE.INTRA.VDW.0>
3.81702

>  <SCORE.INTRA.norm>
0.0564875

>  <SCORE.RESTR>
0

>  <SCORE.RESTR.CAVITY>
0

>  <SCORE.RESTR.norm>
0

>  <SCORE.SYSTEM>
0

>  <SCORE.SYSTEM.CONST>
0

>  <SCORE.SYSTEM.DIHEDRAL>
0

>  <SCORE.SYSTEM.SOLV>
0

>  <SCORE.SYSTEM.norm>
0

>  <SCORE.heavy>
25

>  <SCORE.norm>
-1.95196

>  <RMSD>
1.708

$$$$
1q8n_lig
 OpenBabel11021811413D
libRbt.so/2013.1/901 2013/11/27
 25 27  0  0  0  0  0  0  0  0999 V2000
    0.8733    0.7390   -0.7549 C   0  0  0  0  0  0  0  0  0  0  0  0
    0.8918    2.0531   -1.7236 C   0  0  0  0  0  0  0  0  0  0  0  0
    2.5620   -4.4937   -3.0329 N   0  0  0  0  0  0  0  0  0  0  0  0
    1.0544    1.9892   -3.0669 C   0  0  0  0  0  0  0  0  0  0  0  0
   -0.9999    1.2492    4.9147 N   0  0  0  0  0  0  0  0  0  0  0  0
    1.0711    3.2072   -3.9096 C   0  0  0  0  0  0  0  0  0  0  0  0
    0.9195    4.4228   -3.3357 C   0  0  0  0  0  0  0  0  0  0  0  0
    0.7380    4.5131   -1.9058 C   0  0  0  0  0  0  0  0  0  0  0  0
    0.7267    3.4078   -1.1565 C   0  0  0  0  0  0  0  0  0  0  0  0
    1.3363   -0.6927   -1.3841 C   0  0  0  0  0  0  0  0  0  0  0  0
    1.8676   -0.7738   -2.6216 C   0  0  0  0  0  0  0  0  0  0  0  0
    2.2958   -2.0722   -3.2120 C   0  0  0  0  0  0  0  0  0  0  0  0
    2.1606   -3.2243   -2.5024 C   0  0  0  0  0  0  0  0  0  0  0  0
    1.5833   -3.1512   -1.1469 C   0  0  0  0  0  0  0  0  0  0  0  0
    1.2014   -1.9743   -0.6314 C   0  0  0  0  0  0  0  0  0  0  0  0
    0.3987    0.8309    0.8310 C   0  0  0  0  0  0  0  0  0  0  0  0
   -0.4952    1.9539    1.2798 C   0  0  0  0  0  0  0  0  0  0  0  0
   -0.9209    2.0800    2.5396 C   0  0  0  0  0  0  0  0  0  0  0  0
   -0.5285    1.1101    3.5686 C   0  0  0  0  0  0  0  0  0  0  0  0
    0.2781    0.0861    3.2200 C   0  0  0  0  0  0  0  0  0  0  0  0
    0.7616   -0.0667    1.8066 C   0  0  0  0  0  0  0  0  0  0  0  0
    2.0511   -5.7301   -2.5243 C   0  0  0  0  0  0  0  0  0  0  0  0
    3.5029   -4.5585   -4.1079 C   0  0  0  0  0  0  0  0  0  0  0  0
   -1.4797    2.5158    5.3877 C   0  0  0  0  0  0  0  0  0  0  0  0
   -1.0115    0.1266    5.8253 C   0  0  0  0  0  0  0  0  0  0  0  0
  1  2  1  0  0  0  0
  1 10  1  0  0  0  0
  1 16  1  0  0  0  0
  2  4  2  0  0  0  0
  2  9  1  0  0  0  0
  4  6  1  0  0  0  0
  6  7  2  0  0  0  0
  7  8  1  0  0  0  0
  8  9  2  0  0  0  0
 10 11  2  0  0  0  0
 10 15  1  0  0  0  0
 11 12  1  0  0  0  0
 12 13  2  0  0  0  0
 13  3  1  0  0  0  0
 13 14  1  0  0  0  0
 14 15  2  0  0  0  0
 16 17  2  0  0  0  0
 16 21  1  0  0  0  0
 17 18  1  0  0  0  0
 18 19  2  0  0  0  0
 19  5  1  0  0  0  0
 19 20  1  0  0  0  0
 20 21  2  0  0  0  0
 22  3  1  0  0  0  0
 23  3  1  0  0  0  0
 24  5  1  0  0  0  0
 25  5  1  0  0  0  0
M  END
>  <CHROM.1>
11.34759598,7.53970533,23.10539224,-159.10860755,-20.30486695,0.83128172
0.08316802,-0.26383780,-0.05844056,1.21908361,-0.56722271

>  <Name>
1q8n_lig

>  <RI>
0

>  <Rbt.Current_Directory>
/home/itssahil/PROJECTS/Mol_Feturizer/New_Systems/rnas/1q8n

>  <Rbt.Executable>
rbdock ($Id: //depot/dev/client3/rdock/2013.1/src/exe/rbdock.cxx#4 $)

>  <Rbt.Library>
libRbt.so (2013.1, Build901 2013/11/27)

>  <Rbt.Parameter_File>
/export/apps/rDock/src/rDock_2013.1_src/data/scripts/dock_solv.prm

>  <Rbt.Receptor>
prm/pocket_docking_6.prm

>  <SCORE>
-49.6003

>  <SCORE.INTER>
-51.2937

>  <SCORE.INTER.CONST>
1

>  <SCORE.INTER.POLAR>
0

>  <SCORE.INTER.ROT>
5

>  <SCORE.INTER.SOLV>
9.62622

>  <SCORE.INTER.VDW>
-44.3379

>  <SCORE.INTER.norm>
-2.05175

>  <SCORE.INTRA>
1.69341

>  <SCORE.INTRA.DIHEDRAL>
3.16655

>  <SCORE.INTRA.DIHEDRAL.0>
2.1627

>  <SCORE.INTRA.POLAR>
0

>  <SCORE.INTRA.POLAR.0>
0

>  <SCORE.INTRA.REPUL>
0

>  <SCORE.INTRA.REPUL.0>
0

>  <SCORE.INTRA.SOLV>
0.0643769

>  <SCORE.INTRA.SOLV.lig_0>
-5.95779

>  <SCORE.INTRA.VDW>
0.0779518

>  <SCORE.INTRA.VDW.0>
3.81702

>  <SCORE.INTRA.norm>
0.0677366

>  <SCORE.RESTR>
0

>  <SCORE.RESTR.CAVITY>
0

>  <SCORE.RESTR.norm>
0

>  <SCORE.SYSTEM>
0

>  <SCORE.SYSTEM.CONST>
0

>  <SCORE.SYSTEM.DIHEDRAL>
0

>  <SCORE.SYSTEM.SOLV>
0

>  <SCORE.SYSTEM.norm>
0

>  <SCORE.heavy>
25

>  <SCORE.norm>
-1.98401

>  <RMSD>
1.708

$$$$
1q8n_lig
 OpenBabel11021811403D
libRbt.so/2013.1/901 2013/11/27
 25 27  0  0  0  0  0  0  0  0999 V2000
    0.8633    0.7117   -0.7890 C   0  0  0  0  0  0  0  0  0  0  0  0
    0.8934    2.0461   -1.7292 C   0  0  0  0  0  0  0  0  0  0  0  0
   -0.9451    1.2535    4.8552 N   0  0  0  0  0  0  0  0  0  0  0  0
    1.0852    2.0119   -3.0697 C   0  0  0  0  0  0  0  0  0  0  0  0
    2.6332   -4.5416   -3.0656 N   0  0  0  0  0  0  0  0  0  0  0  0
    1.1114    3.2476   -3.8860 C   0  0  0  0  0  0  0  0  0  0  0  0
    0.9391    4.4497   -3.2900 C   0  0  0  0  0  0  0  0  0  0  0  0
    0.7264    4.5084   -1.8627 C   0  0  0  0  0  0  0  0  0  0  0  0
    0.7067    3.3874   -1.1374 C   0  0  0  0  0  0  0  0  0  0  0  0
    0.3663    0.8653    0.7568 C   0  0  0  0  0  0  0  0  0  0  0  0
   -0.4179    1.8941    1.1404 C   0  0  0  0  0  0  0  0  0  0  0  0
   -0.8811    2.0502    2.5471 C   0  0  0  0  0  0  0  0  0  0  0  0
   -0.5193    1.1410    3.4915 C   0  0  0  0  0  0  0  0  0  0  0  0
    0.3360    0.0095    3.0866 C   0  0  0  0  0  0  0  0  0  0  0  0
    0.7455   -0.1148    1.8164 C   0  0  0  0  0  0  0  0  0  0  0  0
    1.3225   -0.7729   -1.3667 C   0  0  0  0  0  0  0  0  0  0  0  0
    1.9280   -0.8865   -2.7386 C   0  0  0  0  0  0  0  0  0  0  0  0
    2.3274   -2.0503   -3.2586 C   0  0  0  0  0  0  0  0  0  0  0  0
    2.1913   -3.3004   -2.5021 C   0  0  0  0  0  0  0  0  0  0  0  0
    1.6484   -3.2551   -1.2677 C   0  0  0  0  0  0  0  0  0  0  0  0
    1.1972   -1.9525   -0.6722 C   0  0  0  0  0  0  0  0  0  0  0  0
   -1.4778    2.4689    5.3914 C   0  0  0  0  0  0  0  0  0  0  0  0
   -0.8475    0.1293    5.7339 C   0  0  0  0  0  0  0  0  0  0  0  0
    2.0650   -5.7823   -2.6226 C   0  0  0  0  0  0  0  0  0  0  0  0
    3.6505   -4.5797   -4.0919 C   0  0  0  0  0  0  0  0  0  0  0  0
  1  2  1  0  0  0  0
  1 10  1  0  0  0  0
  1 16  1  0  0  0  0
  2  4  2  0  0  0  0
  2  9  1  0  0  0  0
  4  6  1  0  0  0  0
  6  7  2  0  0  0  0
  7  8  1  0  0  0  0
  8  9  2  0  0  0  0
 10 11  2  0  0  0  0
 10 15  1  0  0  0  0
 11 12  1  0  0  0  0
 12 13  2  0  0  0  0
 13  3  1  0  0  0  0
 13 14  1  0  0  0  0
 14 15  2  0  0  0  0
 16 17  2  0  0  0  0
 16 21  1  0  0  0  0
 17 18  1  0  0  0  0
 18 19  2  0  0  0  0
 19  5  1  0  0  0  0
 19 20  1  0  0  0  0
 20 21  2  0  0  0  0
 22  3  1  0  0  0  0
 23  3  1  0  0  0  0
 24  5  1  0  0  0  0
 25  5  1  0  0  0  0
M  END
>  <CHROM.1>
-169.41322515,22.65601167,6.93229915,-16.16411136,-155.41820240,0.86557110
0.05862378,-0.29968748,-3.07026705,-1.21821724,2.56686815

>  <Name>
1q8n_lig

>  <RI>
0

>  <Rbt.Current_Directory>
/home/itssahil/PROJECTS/Mol_Feturizer/New_Systems/rnas/1q8n

>  <Rbt.Executable>
rbdock ($Id: //depot/dev/client3/rdock/2013.1/src/exe/rbdock.cxx#4 $)

>  <Rbt.Library>
libRbt.so (2013.1, Build901 2013/11/27)

>  <Rbt.Parameter_File>
/export/apps/rDock/src/rDock_2013.1_src/data/scripts/dock_solv.prm

>  <Rbt.Receptor>
prm/blind_docking_40.prm

>  <SCORE>
-50.0815

>  <SCORE.INTER>
-51.7537

>  <SCORE.INTER.CONST>
1

>  <SCORE.INTER.POLAR>
0

>  <SCORE.INTER.ROT>
5

>  <SCORE.INTER.SOLV>
9.68068

>  <SCORE.INTER.VDW>
-44.6627

>  <SCORE.INTER.norm>
-2.07015

>  <SCORE.INTRA>
1.67225

>  <SCORE.INTRA.DIHEDRAL>
3.20108

>  <SCORE.INTRA.DIHEDRAL.0>
2.1627

>  <SCORE.INTRA.POLAR>
0

>  <SCORE.INTRA.POLAR.0>
0

>  <SCORE.INTRA.REPUL>
0

>  <SCORE.INTRA.REPUL.0>
0

>  <SCORE.INTRA.SOLV>
0.0654947

>  <SCORE.INTRA.SOLV.lig_0>
-5.95779

>  <SCORE.INTRA.VDW>
0.0389609

>  <SCORE.INTRA.VDW.0>
3.81702

>  <SCORE.INTRA.norm>
0.0668899

>  <SCORE.RESTR>
0

>  <SCORE.RESTR.CAVITY>
0

>  <SCORE.RESTR.norm>
0

>  <SCORE.SYSTEM>
0

>  <SCORE.SYSTEM.CONST>
0

>  <SCORE.SYSTEM.DIHEDRAL>
0

>  <SCORE.SYSTEM.SOLV>
0

>  <SCORE.SYSTEM.norm>
0

>  <SCORE.heavy>
25

>  <SCORE.norm>
-2.00326

>  <RMSD>
1.709

$$$$
1q8n_lig
 OpenBabel11021811413D
libRbt.so/2013.1/901 2013/11/27
 25 27  0  0  0  0  0  0  0  0999 V2000
    0.8912    0.7472   -0.7432 C   0  0  0  0  0  0  0  0  0  0  0  0
    0.9045    2.0606   -1.7129 C   0  0  0  0  0  0  0  0  0  0  0  0
    2.6253   -4.4595   -3.0465 N   0  0  0  0  0  0  0  0  0  0  0  0
    1.0791    1.9973   -3.0547 C   0  0  0  0  0  0  0  0  0  0  0  0
   -0.9982    1.2558    4.9211 N   0  0  0  0  0  0  0  0  0  0  0  0
    1.0904    3.2146   -3.8983 C   0  0  0  0  0  0  0  0  0  0  0  0
    0.9215    4.4291   -3.3269 C   0  0  0  0  0  0  0  0  0  0  0  0
    0.7270    4.5187   -1.8986 C   0  0  0  0  0  0  0  0  0  0  0  0
    0.7207    3.4139   -1.1485 C   0  0  0  0  0  0  0  0  0  0  0  0
    1.3656   -0.6820   -1.3696 C   0  0  0  0  0  0  0  0  0  0  0  0
    1.1285   -1.8423   -0.7231 C   0  0  0  0  0  0  0  0  0  0  0  0
    1.5544   -3.1562   -1.2799 C   0  0  0  0  0  0  0  0  0  0  0  0
    2.2007   -3.2158   -2.4749 C   0  0  0  0  0  0  0  0  0  0  0  0
    2.4651   -1.9556   -3.1946 C   0  0  0  0  0  0  0  0  0  0  0  0
    2.0764   -0.7814   -2.6781 C   0  0  0  0  0  0  0  0  0  0  0  0
    0.4106    0.8373    0.8410 C   0  0  0  0  0  0  0  0  0  0  0  0
   -0.4534    1.9810    1.2961 C   0  0  0  0  0  0  0  0  0  0  0  0
   -0.8823    2.1070    2.5548 C   0  0  0  0  0  0  0  0  0  0  0  0
   -0.5234    1.1164    3.5763 C   0  0  0  0  0  0  0  0  0  0  0  0
    0.2555    0.0732    3.2220 C   0  0  0  0  0  0  0  0  0  0  0  0
    0.7423   -0.0797    1.8097 C   0  0  0  0  0  0  0  0  0  0  0  0
    2.0861   -5.7169   -2.6262 C   0  0  0  0  0  0  0  0  0  0  0  0
    3.6195   -4.4760   -4.0744 C   0  0  0  0  0  0  0  0  0  0  0  0
   -1.4963    2.5181    5.3871 C   0  0  0  0  0  0  0  0  0  0  0  0
   -0.9950    0.1381    5.8377 C   0  0  0  0  0  0  0  0  0  0  0  0
  1  2  1  0  0  0  0
  1 10  1  0  0  0  0
  1 16  1  0  0  0  0
  2  4  2  0  0  0  0
  2  9  1  0  0  0  0
  4  6  1  0  0  0  0
  6  7  2  0  0  0  0
  7  8  1  0  0  0  0
  8  9  2  0  0  0  0
 10 11  2  0  0  0  0
 10 15  1  0  0  0  0
 11 12  1  0  0  0  0
 12 13  2  0  0  0  0
 13  3  1  0  0  0  0
 13 14  1  0  0  0  0
 14 15  2  0  0  0  0
 16 17  2  0  0  0  0
 16 21  1  0  0  0  0
 17 18  1  0  0  0  0
 18 19  2  0  0  0  0
 19  5  1  0  0  0  0
 19 20  1  0  0  0  0
 20 21  2  0  0  0  0
 22  3  1  0  0  0  0
 23  3  1  0  0  0  0
 24  5  1  0  0  0  0
 25  5  1  0  0  0  0
M  END
>  <CHROM.1>
10.98871698,-166.46908677,21.00302608,18.33568530,-17.70362212,0.85879837
0.10335985,-0.27077996,-0.05152764,1.21217872,-0.56637677

>  <Name>
1q8n_lig

>  <RI>
0

>  <Rbt.Current_Directory>
/home/itssahil/PROJECTS/Mol_Feturizer/New_Systems/rnas/1q8n

>  <Rbt.Executable>
rbdock ($Id: //depot/dev/client3/rdock/2013.1/src/exe/rbdock.cxx#4 $)

>  <Rbt.Library>
libRbt.so (2013.1, Build901 2013/11/27)

>  <Rbt.Parameter_File>
/export/apps/rDock/src/rDock_2013.1_src/data/scripts/dock_solv.prm

>  <Rbt.Receptor>
prm/pocket_docking_7.prm

>  <SCORE>
-49.8489

>  <SCORE.INTER>
-51.2259

>  <SCORE.INTER.CONST>
1

>  <SCORE.INTER.POLAR>
0

>  <SCORE.INTER.ROT>
5

>  <SCORE.INTER.SOLV>
9.70559

>  <SCORE.INTER.VDW>
-44.3191

>  <SCORE.INTER.norm>
-2.04903

>  <SCORE.INTRA>
1.37692

>  <SCORE.INTRA.DIHEDRAL>
2.44873

>  <SCORE.INTRA.DIHEDRAL.0>
2.1627

>  <SCORE.INTRA.POLAR>
0

>  <SCORE.INTRA.POLAR.0>
0

>  <SCORE.INTRA.REPUL>
0

>  <SCORE.INTRA.REPUL.0>
0

>  <SCORE.INTRA.SOLV>
0.0639265

>  <SCORE.INTRA.SOLV.lig_0>
-5.95779

>  <SCORE.INTRA.VDW>
0.120597

>  <SCORE.INTRA.VDW.0>
3.81702

>  <SCORE.INTRA.norm>
0.0550769

>  <SCORE.RESTR>
0

>  <SCORE.RESTR.CAVITY>
0

>  <SCORE.RESTR.norm>
0

>  <SCORE.SYSTEM>
0

>  <SCORE.SYSTEM.CONST>
0

>  <SCORE.SYSTEM.DIHEDRAL>
0

>  <SCORE.SYSTEM.SOLV>
0

>  <SCORE.SYSTEM.norm>
0

>  <SCORE.heavy>
25

>  <SCORE.norm>
-1.99396

>  <RMSD>
1.710

$$$$
1q8n_lig
 OpenBabel11021811413D
libRbt.so/2013.1/901 2013/11/27
 25 27  0  0  0  0  0  0  0  0999 V2000
    0.8528    0.6885   -0.7930 C   0  0  0  0  0  0  0  0  0  0  0  0
    0.8783    2.0201   -1.7372 C   0  0  0  0  0  0  0  0  0  0  0  0
   -0.9103    1.2502    4.8637 N   0  0  0  0  0  0  0  0  0  0  0  0
    1.0279    1.9795   -3.0829 C   0  0  0  0  0  0  0  0  0  0  0  0
    2.5888   -4.5754   -3.0714 N   0  0  0  0  0  0  0  0  0  0  0  0
    1.0514    3.2128   -3.9029 C   0  0  0  0  0  0  0  0  0  0  0  0
    0.9195    4.4191   -3.3052 C   0  0  0  0  0  0  0  0  0  0  0  0
    0.7520    4.4847   -1.8722 C   0  0  0  0  0  0  0  0  0  0  0  0
    0.7343    3.3658   -1.1436 C   0  0  0  0  0  0  0  0  0  0  0  0
    0.3683    0.8476    0.7563 C   0  0  0  0  0  0  0  0  0  0  0  0
   -0.3984    1.8871    1.1460 C   0  0  0  0  0  0  0  0  0  0  0  0
   -0.8500    2.0484    2.5560 C   0  0  0  0  0  0  0  0  0  0  0  0
   -0.4952    1.1331    3.4970 C   0  0  0  0  0  0  0  0  0  0  0  0
    0.3410   -0.0103    3.0853 C   0  0  0  0  0  0  0  0  0  0  0  0
    0.7403   -0.1391    1.8123 C   0  0  0  0  0  0  0  0  0  0  0  0
    1.3045   -0.7987   -1.3699 C   0  0  0  0  0  0  0  0  0  0  0  0
    1.8677   -0.9221   -2.7588 C   0  0  0  0  0  0  0  0  0  0  0  0
    2.2591   -2.0883   -3.2795 C   0  0  0  0  0  0  0  0  0  0  0  0
    2.1557   -3.3316   -2.5067 C   0  0  0  0  0  0  0  0  0  0  0  0
    1.6513   -3.2774   -1.2564 C   0  0  0  0  0  0  0  0  0  0  0  0
    1.2095   -1.9720   -0.6601 C   0  0  0  0  0  0  0  0  0  0  0  0
   -1.4268    2.4711    5.4032 C   0  0  0  0  0  0  0  0  0  0  0  0
   -0.8181    0.1253    5.7419 C   0  0  0  0  0  0  0  0  0  0  0  0
    3.5868   -4.5955   -4.1019 C   0  0  0  0  0  0  0  0  0  0  0  0
    2.0425   -5.8351   -2.6196 C   0  0  0  0  0  0  0  0  0  0  0  0
  1  2  1  0  0  0  0
  1 10  1  0  0  0  0
  1 16  1  0  0  0  0
  2  4  2  0  0  0  0
  2  9  1  0  0  0  0
  4  6  1  0  0  0  0
  6  7  2  0  0  0  0
  7  8  1  0  0  0  0
  8  9  2  0  0  0  0
 10 11  2  0  0  0  0
 10 15  1  0  0  0  0
 11 12  1  0  0  0  0
 12 13  2  0  0  0  0
 13  3  1  0  0  0  0
 13 14  1  0  0  0  0
 14 15  2  0  0  0  0
 16 17  2  0  0  0  0
 16 21  1  0  0  0  0
 17 18  1  0  0  0  0
 18 19  2  0  0  0  0
 19  5  1  0  0  0  0
 19 20  1  0  0  0  0
 20 21  2  0  0  0  0
 22  3  1  0  0  0  0
 23  3  1  0  0  0  0
 24  5  1  0  0  0  0
 25  5  1  0  0  0  0
M  END
>  <CHROM.1>
-167.80077224,21.90350149,5.43657151,-15.91002848,25.52394728,0.85716472
0.03672675,-0.30228220,-3.07723177,-1.22709432,2.55752979

>  <Name>
1q8n_lig

>  <RI>
0

>  <Rbt.Current_Directory>
/home/itssahil/PROJECTS/Mol_Feturizer/New_Systems/rnas/1q8n

>  <Rbt.Executable>
rbdock ($Id: //depot/dev/client3/rdock/2013.1/src/exe/rbdock.cxx#4 $)

>  <Rbt.Library>
libRbt.so (2013.1, Build901 2013/11/27)

>  <Rbt.Parameter_File>
/export/apps/rDock/src/rDock_2013.1_src/data/scripts/dock_solv.prm

>  <Rbt.Receptor>
prm/pocket_docking_6.prm

>  <SCORE>
-50.0377

>  <SCORE.INTER>
-51.6856

>  <SCORE.INTER.CONST>
1

>  <SCORE.INTER.POLAR>
0

>  <SCORE.INTER.ROT>
5

>  <SCORE.INTER.SOLV>
9.60436

>  <SCORE.INTER.VDW>
-44.5918

>  <SCORE.INTER.norm>
-2.06742

>  <SCORE.INTRA>
1.64788

>  <SCORE.INTRA.DIHEDRAL>
3.33251

>  <SCORE.INTRA.DIHEDRAL.0>
2.1627

>  <SCORE.INTRA.POLAR>
0

>  <SCORE.INTRA.POLAR.0>
0

>  <SCORE.INTRA.REPUL>
0

>  <SCORE.INTRA.REPUL.0>
0

>  <SCORE.INTRA.SOLV>
0.0657419

>  <SCORE.INTRA.SOLV.lig_0>
-5.95779

>  <SCORE.INTRA.VDW>
-0.0512493

>  <SCORE.INTRA.VDW.0>
3.81702

>  <SCORE.INTRA.norm>
0.065915

>  <SCORE.RESTR>
0

>  <SCORE.RESTR.CAVITY>
0

>  <SCORE.RESTR.norm>
0

>  <SCORE.SYSTEM>
0

>  <SCORE.SYSTEM.CONST>
0

>  <SCORE.SYSTEM.DIHEDRAL>
0

>  <SCORE.SYSTEM.SOLV>
0

>  <SCORE.SYSTEM.norm>
0

>  <SCORE.heavy>
25

>  <SCORE.norm>
-2.00151

>  <RMSD>
1.711

$$$$
1q8n_lig
 OpenBabel11021811413D
libRbt.so/2013.1/901 2013/11/27
 25 27  0  0  0  0  0  0  0  0999 V2000
    0.8070    0.8509   -0.7557 C   0  0  0  0  0  0  0  0  0  0  0  0
    0.8608    2.1392   -1.7571 C   0  0  0  0  0  0  0  0  0  0  0  0
    2.5473   -4.4293   -2.8798 N   0  0  0  0  0  0  0  0  0  0  0  0
    1.0404    2.0383   -3.0959 C   0  0  0  0  0  0  0  0  0  0  0  0
   -0.9172    1.1690    4.9748 N   0  0  0  0  0  0  0  0  0  0  0  0
    1.0891    3.2339   -3.9689 C   0  0  0  0  0  0  0  0  0  0  0  0
    0.9502    4.4661   -3.4283 C   0  0  0  0  0  0  0  0  0  0  0  0
    0.7510    4.5959   -2.0038 C   0  0  0  0  0  0  0  0  0  0  0  0
    0.7109    3.5105   -1.2270 C   0  0  0  0  0  0  0  0  0  0  0  0
    1.2836   -0.5982   -1.3328 C   0  0  0  0  0  0  0  0  0  0  0  0
    1.1322   -1.7247   -0.6058 C   0  0  0  0  0  0  0  0  0  0  0  0
    1.5615   -3.0561   -1.1167 C   0  0  0  0  0  0  0  0  0  0  0  0
    2.1227   -3.1672   -2.3504 C   0  0  0  0  0  0  0  0  0  0  0  0
    2.2927   -1.9444   -3.1578 C   0  0  0  0  0  0  0  0  0  0  0  0
    1.9024   -0.7537   -2.6819 C   0  0  0  0  0  0  0  0  0  0  0  0
    0.2838    0.9856    0.8118 C   0  0  0  0  0  0  0  0  0  0  0  0
    0.7662    0.0076    1.8473 C   0  0  0  0  0  0  0  0  0  0  0  0
    0.3909    0.0666    3.1280 C   0  0  0  0  0  0  0  0  0  0  0  0
   -0.5299    1.1088    3.5965 C   0  0  0  0  0  0  0  0  0  0  0  0
   -0.9976    2.0083    2.7062 C   0  0  0  0  0  0  0  0  0  0  0  0
   -0.5815    1.9529    1.2644 C   0  0  0  0  0  0  0  0  0  0  0  0
    2.0558   -5.6744   -2.3733 C   0  0  0  0  0  0  0  0  0  0  0  0
    3.4927   -4.4779   -3.9518 C   0  0  0  0  0  0  0  0  0  0  0  0
   -0.7541    0.0246    5.8246 C   0  0  0  0  0  0  0  0  0  0  0  0
   -1.4729    2.3750    5.5461 C   0  0  0  0  0  0  0  0  0  0  0  0
  1  2  1  0  0  0  0
  1 10  1  0  0  0  0
  1 16  1  0  0  0  0
  2  4  2  0  0  0  0
  2  9  1  0  0  0  0
  4  6  1  0  0  0  0
  6  7  2  0  0  0  0
  7  8  1  0  0  0  0
  8  9  2  0  0  0  0
 10 11  2  0  0  0  0
 10 15  1  0  0  0  0
 11 12  1  0  0  0  0
 12 13  2  0  0  0  0
 13  3  1  0  0  0  0
 13 14  1  0  0  0  0
 14 15  2  0  0  0  0
 16 17  2  0  0  0  0
 16 21  1  0  0  0  0
 17 18  1  0  0  0  0
 18 19  2  0  0  0  0
 19  5  1  0  0  0  0
 19 20  1  0  0  0  0
 20 21  2  0  0  0  0
 22  3  1  0  0  0  0
 23  3  1  0  0  0  0
 24  5  1  0  0  0  0
 25  5  1  0  0  0  0
M  END
>  <CHROM.1>
12.59330397,-172.95567560,-154.04157695,19.97920255,-18.68473054,0.83181516
0.12697871,-0.23507185,0.00133288,1.22073267,-0.59983571

>  <Name>
1q8n_lig

>  <RI>
0

>  <Rbt.Current_Directory>
/home/itssahil/PROJECTS/Mol_Feturizer/New_Systems/rnas/1q8n

>  <Rbt.Executable>
rbdock ($Id: //depot/dev/client3/rdock/2013.1/src/exe/rbdock.cxx#4 $)

>  <Rbt.Library>
libRbt.so (2013.1, Build901 2013/11/27)

>  <Rbt.Parameter_File>
/export/apps/rDock/src/rDock_2013.1_src/data/scripts/dock_solv.prm

>  <Rbt.Receptor>
prm/pocket_docking_7.prm

>  <SCORE>
-48.7445

>  <SCORE.INTER>
-50.2187

>  <SCORE.INTER.CONST>
1

>  <SCORE.INTER.POLAR>
0

>  <SCORE.INTER.ROT>
5

>  <SCORE.INTER.SOLV>
9.6223

>  <SCORE.INTER.VDW>
-43.6199

>  <SCORE.INTER.norm>
-2.00875

>  <SCORE.INTRA>
1.47425

>  <SCORE.INTRA.DIHEDRAL>
2.80899

>  <SCORE.INTRA.DIHEDRAL.0>
2.1627

>  <SCORE.INTRA.POLAR>
0

>  <SCORE.INTRA.POLAR.0>
0

>  <SCORE.INTRA.REPUL>
0

>  <SCORE.INTRA.REPUL.0>
0

>  <SCORE.INTRA.SOLV>
0.0617887

>  <SCORE.INTRA.SOLV.lig_0>
-5.95779

>  <SCORE.INTRA.VDW>
0.0388648

>  <SCORE.INTRA.VDW.0>
3.81702

>  <SCORE.INTRA.norm>
0.0589701

>  <SCORE.RESTR>
0

>  <SCORE.RESTR.CAVITY>
0

>  <SCORE.RESTR.norm>
0

>  <SCORE.SYSTEM>
0

>  <SCORE.SYSTEM.CONST>
0

>  <SCORE.SYSTEM.DIHEDRAL>
0

>  <SCORE.SYSTEM.SOLV>
0

>  <SCORE.SYSTEM.norm>
0

>  <SCORE.heavy>
25

>  <SCORE.norm>
-1.94978

>  <RMSD>
1.711

$$$$
1q8n_lig
 OpenBabel11021811403D
libRbt.so/2013.1/901 2013/11/27
 25 27  0  0  0  0  0  0  0  0999 V2000
    0.8824    0.7351   -0.7478 C   0  0  0  0  0  0  0  0  0  0  0  0
    0.8955    2.0488   -1.7170 C   0  0  0  0  0  0  0  0  0  0  0  0
    2.5911   -4.4919   -3.0239 N   0  0  0  0  0  0  0  0  0  0  0  0
    1.0496    1.9844   -3.0612 C   0  0  0  0  0  0  0  0  0  0  0  0
   -0.9884    1.2435    4.9228 N   0  0  0  0  0  0  0  0  0  0  0  0
    1.0615    3.2021   -3.9045 C   0  0  0  0  0  0  0  0  0  0  0  0
    0.9140    4.4180   -3.3301 C   0  0  0  0  0  0  0  0  0  0  0  0
    0.7416    4.5088   -1.8990 C   0  0  0  0  0  0  0  0  0  0  0  0
    0.7345    3.4038   -1.1494 C   0  0  0  0  0  0  0  0  0  0  0  0
    1.3511   -0.6950   -1.3764 C   0  0  0  0  0  0  0  0  0  0  0  0
    1.9409   -0.7668   -2.5878 C   0  0  0  0  0  0  0  0  0  0  0  0
    2.3752   -2.0636   -3.1773 C   0  0  0  0  0  0  0  0  0  0  0  0
    2.1859   -3.2237   -2.4935 C   0  0  0  0  0  0  0  0  0  0  0  0
    1.5444   -3.1608   -1.1666 C   0  0  0  0  0  0  0  0  0  0  0  0
    1.1578   -1.9852   -0.6517 C   0  0  0  0  0  0  0  0  0  0  0  0
    0.4077    0.8258    0.8382 C   0  0  0  0  0  0  0  0  0  0  0  0
   -0.4685    1.9605    1.2924 C   0  0  0  0  0  0  0  0  0  0  0  0
   -0.8935    2.0863    2.5525 C   0  0  0  0  0  0  0  0  0  0  0  0
   -0.5178    1.1044    3.5764 C   0  0  0  0  0  0  0  0  0  0  0  0
    0.2725    0.0696    3.2229 C   0  0  0  0  0  0  0  0  0  0  0  0
    0.7551   -0.0831    1.8091 C   0  0  0  0  0  0  0  0  0  0  0  0
    2.0771   -5.7295   -2.5213 C   0  0  0  0  0  0  0  0  0  0  0  0
    3.5390   -4.5542   -4.0929 C   0  0  0  0  0  0  0  0  0  0  0  0
   -0.9376    0.1311    5.8273 C   0  0  0  0  0  0  0  0  0  0  0  0
   -1.5176    2.4986    5.4066 C   0  0  0  0  0  0  0  0  0  0  0  0
  1  2  1  0  0  0  0
  1 10  1  0  0  0  0
  1 16  1  0  0  0  0
  2  4  2  0  0  0  0
  2  9  1  0  0  0  0
  4  6  1  0  0  0  0
  6  7  2  0  0  0  0
  7  8  1  0  0  0  0
  8  9  2  0  0  0  0
 10 11  2  0  0  0  0
 10 15  1  0  0  0  0
 11 12  1  0  0  0  0
 12 13  2  0  0  0  0
 13  3  1  0  0  0  0
 13 14  1  0  0  0  0
 14 15  2  0  0  0  0
 16 17  2  0  0  0  0
 16 21  1  0  0  0  0
 17 18  1  0  0  0  0
 18 19  2  0  0  0  0
 19  5  1  0  0  0  0
 19 20  1  0  0  0  0
 20 21  2  0  0  0  0
 22  3  1  0  0  0  0
 23  3  1  0  0  0  0
 24  5  1  0  0  0  0
 25  5  1  0  0  0  0
M  END
>  <CHROM.1>
11.78534975,10.73441201,21.89789046,-161.84147868,163.06892640,0.84422232
0.07999322,-0.25614116,-0.05273876,1.21733486,-0.57335050

>  <Name>
1q8n_lig

>  <RI>
0

>  <Rbt.Current_Directory>
/home/itssahil/PROJECTS/Mol_Feturizer/New_Systems/rnas/1q8n

>  <Rbt.Executable>
rbdock ($Id: //depot/dev/client3/rdock/2013.1/src/exe/rbdock.cxx#4 $)

>  <Rbt.Library>
libRbt.so (2013.1, Build901 2013/11/27)

>  <Rbt.Parameter_File>
/export/apps/rDock/src/rDock_2013.1_src/data/scripts/dock_solv.prm

>  <Rbt.Receptor>
prm/blind_docking_40.prm

>  <SCORE>
-49.6169

>  <SCORE.INTER>
-51.1702

>  <SCORE.INTER.CONST>
1

>  <SCORE.INTER.POLAR>
0

>  <SCORE.INTER.ROT>
5

>  <SCORE.INTER.SOLV>
9.61624

>  <SCORE.INTER.VDW>
-44.2522

>  <SCORE.INTER.norm>
-2.04681

>  <SCORE.INTRA>
1.55332

>  <SCORE.INTRA.DIHEDRAL>
2.32591

>  <SCORE.INTRA.DIHEDRAL.0>
2.1627

>  <SCORE.INTRA.POLAR>
0

>  <SCORE.INTRA.POLAR.0>
0

>  <SCORE.INTRA.REPUL>
0

>  <SCORE.INTRA.REPUL.0>
0

>  <SCORE.INTRA.SOLV>
0.0639422

>  <SCORE.INTRA.SOLV.lig_0>
-5.95779

>  <SCORE.INTRA.VDW>
0.358399

>  <SCORE.INTRA.VDW.0>
3.81702

>  <SCORE.INTRA.norm>
0.062133

>  <SCORE.RESTR>
0

>  <SCORE.RESTR.CAVITY>
0

>  <SCORE.RESTR.norm>
0

>  <SCORE.SYSTEM>
0

>  <SCORE.SYSTEM.CONST>
0

>  <SCORE.SYSTEM.DIHEDRAL>
0

>  <SCORE.SYSTEM.SOLV>
0

>  <SCORE.SYSTEM.norm>
0

>  <SCORE.heavy>
25

>  <SCORE.norm>
-1.98468

>  <RMSD>
1.712

$$$$
1q8n_lig
 OpenBabel11021811413D
libRbt.so/2013.1/901 2013/11/27
 25 27  0  0  0  0  0  0  0  0999 V2000
    0.9118    0.7169   -0.7543 C   0  0  0  0  0  0  0  0  0  0  0  0
    0.9100    2.0276   -1.7278 C   0  0  0  0  0  0  0  0  0  0  0  0
    2.6679   -4.4841   -3.0538 N   0  0  0  0  0  0  0  0  0  0  0  0
    1.0483    1.9594   -3.0735 C   0  0  0  0  0  0  0  0  0  0  0  0
   -0.9489    1.2255    4.9195 N   0  0  0  0  0  0  0  0  0  0  0  0
    1.0470    3.1744   -3.9206 C   0  0  0  0  0  0  0  0  0  0  0  0
    0.9032    4.3917   -3.3484 C   0  0  0  0  0  0  0  0  0  0  0  0
    0.7475    4.4866   -1.9157 C   0  0  0  0  0  0  0  0  0  0  0  0
    0.7522    3.3839   -1.1625 C   0  0  0  0  0  0  0  0  0  0  0  0
    1.3924   -0.7107   -1.3797 C   0  0  0  0  0  0  0  0  0  0  0  0
    1.1671   -1.8708   -0.7285 C   0  0  0  0  0  0  0  0  0  0  0  0
    1.5987   -3.1833   -1.2843 C   0  0  0  0  0  0  0  0  0  0  0  0
    2.2382   -3.2418   -2.4831 C   0  0  0  0  0  0  0  0  0  0  0  0
    2.4896   -1.9818   -3.2077 C   0  0  0  0  0  0  0  0  0  0  0  0
    2.0960   -0.8088   -2.6921 C   0  0  0  0  0  0  0  0  0  0  0  0
    0.4405    0.8082    0.8326 C   0  0  0  0  0  0  0  0  0  0  0  0
   -0.4475    1.9344    1.2849 C   0  0  0  0  0  0  0  0  0  0  0  0
   -0.8704    2.0602    2.5457 C   0  0  0  0  0  0  0  0  0  0  0  0
   -0.4805    1.0867    3.5724 C   0  0  0  0  0  0  0  0  0  0  0  0
    0.3207    0.0597    3.2206 C   0  0  0  0  0  0  0  0  0  0  0  0
    0.8011   -0.0928    1.8060 C   0  0  0  0  0  0  0  0  0  0  0  0
    2.1228   -5.7423   -2.6435 C   0  0  0  0  0  0  0  0  0  0  0  0
    3.6735   -4.4984   -4.0706 C   0  0  0  0  0  0  0  0  0  0  0  0
   -1.4507    2.4859    5.3865 C   0  0  0  0  0  0  0  0  0  0  0  0
   -0.9356    0.1089    5.8373 C   0  0  0  0  0  0  0  0  0  0  0  0
  1  2  1  0  0  0  0
  1 10  1  0  0  0  0
  1 16  1  0  0  0  0
  2  4  2  0  0  0  0
  2  9  1  0  0  0  0
  4  6  1  0  0  0  0
  6  7  2  0  0  0  0
  7  8  1  0  0  0  0
  8  9  2  0  0  0  0
 10 11  2  0  0  0  0
 10 15  1  0  0  0  0
 11 12  1  0  0  0  0
 12 13  2  0  0  0  0
 13  3  1  0  0  0  0
 13 14  1  0  0  0  0
 14 15  2  0  0  0  0
 16 17  2  0  0  0  0
 16 21  1  0  0  0  0
 17 18  1  0  0  0  0
 18 19  2  0  0  0  0
 19  5  1  0  0  0  0
 19 20  1  0  0  0  0
 20 21  2  0  0  0  0
 22  3  1  0  0  0  0
 23  3  1  0  0  0  0
 24  5  1  0  0  0  0
 25  5  1  0  0  0  0
M  END
>  <CHROM.1>
12.44133512,-166.45574526,22.02697991,19.46775943,-18.87530472,0.88658065
0.07353256,-0.28005652,-0.02593921,1.21345228,-0.59268234

>  <Name>
1q8n_lig

>  <RI>
0

>  <Rbt.Current_Directory>
/home/itssahil/PROJECTS/Mol_Feturizer/New_Systems/rnas/1q8n

>  <Rbt.Executable>
rbdock ($Id: //depot/dev/client3/rdock/2013.1/src/exe/rbdock.cxx#4 $)

>  <Rbt.Library>
libRbt.so (2013.1, Build901 2013/11/27)

>  <Rbt.Parameter_File>
/export/apps/rDock/src/rDock_2013.1_src/data/scripts/dock_solv.prm

>  <Rbt.Receptor>
prm/pocket_docking_6.prm

>  <SCORE>
-49.6651

>  <SCORE.INTER>
-51.0392

>  <SCORE.INTER.CONST>
1

>  <SCORE.INTER.POLAR>
0

>  <SCORE.INTER.ROT>
5

>  <SCORE.INTER.SOLV>
9.66944

>  <SCORE.INTER.VDW>
-44.1826

>  <SCORE.INTER.norm>
-2.04157

>  <SCORE.INTRA>
1.37405

>  <SCORE.INTRA.DIHEDRAL>
2.75977

>  <SCORE.INTRA.DIHEDRAL.0>
2.1627

>  <SCORE.INTRA.POLAR>
0

>  <SCORE.INTRA.POLAR.0>
0

>  <SCORE.INTRA.REPUL>
0

>  <SCORE.INTRA.REPUL.0>
0

>  <SCORE.INTRA.SOLV>
0.0622617

>  <SCORE.INTRA.SOLV.lig_0>
-5.95779

>  <SCORE.INTRA.VDW>
-0.0369662

>  <SCORE.INTRA.VDW.0>
3.81702

>  <SCORE.INTRA.norm>
0.0549619

>  <SCORE.RESTR>
0

>  <SCORE.RESTR.CAVITY>
0

>  <SCORE.RESTR.norm>
0

>  <SCORE.SYSTEM>
0

>  <SCORE.SYSTEM.CONST>
0

>  <SCORE.SYSTEM.DIHEDRAL>
0

>  <SCORE.SYSTEM.SOLV>
0

>  <SCORE.SYSTEM.norm>
0

>  <SCORE.heavy>
25

>  <SCORE.norm>
-1.98661

>  <RMSD>
1.715

$$$$
1q8n_lig
 OpenBabel11021811413D
libRbt.so/2013.1/901 2013/11/27
 25 27  0  0  0  0  0  0  0  0999 V2000
    0.9139    0.7617   -0.7539 C   0  0  0  0  0  0  0  0  0  0  0  0
    0.9302    2.0826   -1.7133 C   0  0  0  0  0  0  0  0  0  0  0  0
    2.6788   -4.4220   -3.0857 N   0  0  0  0  0  0  0  0  0  0  0  0
    1.1138    2.0302   -3.0543 C   0  0  0  0  0  0  0  0  0  0  0  0
   -1.0168    1.2197    4.9008 N   0  0  0  0  0  0  0  0  0  0  0  0
    1.1275    3.2542   -3.8884 C   0  0  0  0  0  0  0  0  0  0  0  0
    0.9515    4.4637   -3.3087 C   0  0  0  0  0  0  0  0  0  0  0  0
    0.7473    4.5416   -1.8810 C   0  0  0  0  0  0  0  0  0  0  0  0
    0.7390    3.4310   -1.1396 C   0  0  0  0  0  0  0  0  0  0  0  0
    1.3967   -0.6613   -1.3882 C   0  0  0  0  0  0  0  0  0  0  0  0
    1.1473   -1.8282   -0.7585 C   0  0  0  0  0  0  0  0  0  0  0  0
    1.5806   -3.1366   -1.3227 C   0  0  0  0  0  0  0  0  0  0  0  0
    2.2464   -3.1841   -2.5075 C   0  0  0  0  0  0  0  0  0  0  0  0
    2.5245   -1.9164   -3.2087 C   0  0  0  0  0  0  0  0  0  0  0  0
    2.1289   -0.7473   -2.6857 C   0  0  0  0  0  0  0  0  0  0  0  0
    0.4223    0.8381    0.8276 C   0  0  0  0  0  0  0  0  0  0  0  0
   -0.4555    1.9709    1.2835 C   0  0  0  0  0  0  0  0  0  0  0  0
   -0.8938    2.0855    2.5401 C   0  0  0  0  0  0  0  0  0  0  0  0
   -0.5320    1.0925    3.5583 C   0  0  0  0  0  0  0  0  0  0  0  0
    0.2591    0.0588    3.2031 C   0  0  0  0  0  0  0  0  0  0  0  0
    0.7565   -0.0813    1.7932 C   0  0  0  0  0  0  0  0  0  0  0  0
    3.6676   -4.4783   -4.1189 C   0  0  0  0  0  0  0  0  0  0  0  0
    2.1219   -5.6595   -2.6344 C   0  0  0  0  0  0  0  0  0  0  0  0
   -1.0233    0.0860    5.7799 C   0  0  0  0  0  0  0  0  0  0  0  0
   -1.5033    2.4836    5.4061 C   0  0  0  0  0  0  0  0  0  0  0  0
  1  2  1  0  0  0  0
  1 10  1  0  0  0  0
  1 16  1  0  0  0  0
  2  4  2  0  0  0  0
  2  9  1  0  0  0  0
  4  6  1  0  0  0  0
  6  7  2  0  0  0  0
  7  8  1  0  0  0  0
  8  9  2  0  0  0  0
 10 11  2  0  0  0  0
 10 15  1  0  0  0  0
 11 12  1  0  0  0  0
 12 13  2  0  0  0  0
 13  3  1  0  0  0  0
 13 14  1  0  0  0  0
 14 15  2  0  0  0  0
 16 17  2  0  0  0  0
 16 21  1  0  0  0  0
 17 18  1  0  0  0  0
 18 19  2  0  0  0  0
 19  5  1  0  0  0  0
 19 20  1  0  0  0  0
 20 21  2  0  0  0  0
 22  3  1  0  0  0  0
 23  3  1  0  0  0  0
 24  5  1  0  0  0  0
 25  5  1  0  0  0  0
M  END
>  <CHROM.1>
11.00325351,-165.83428848,21.40764804,-162.98878113,160.83441287,0.87909532
0.11255448,-0.28513974,-0.05741645,1.20525202,-0.55367345

>  <Name>
1q8n_lig

>  <RI>
0

>  <Rbt.Current_Directory>
/home/itssahil/PROJECTS/Mol_Feturizer/New_Systems/rnas/1q8n

>  <Rbt.Executable>
rbdock ($Id: //depot/dev/client3/rdock/2013.1/src/exe/rbdock.cxx#4 $)

>  <Rbt.Library>
libRbt.so (2013.1, Build901 2013/11/27)

>  <Rbt.Parameter_File>
/export/apps/rDock/src/rDock_2013.1_src/data/scripts/dock_solv.prm

>  <Rbt.Receptor>
prm/pocket_docking_7.prm

>  <SCORE>
-49.9484

>  <SCORE.INTER>
-51.3614

>  <SCORE.INTER.CONST>
1

>  <SCORE.INTER.POLAR>
0

>  <SCORE.INTER.ROT>
5

>  <SCORE.INTER.SOLV>
9.80153

>  <SCORE.INTER.VDW>
-44.4415

>  <SCORE.INTER.norm>
-2.05446

>  <SCORE.INTRA>
1.41309

>  <SCORE.INTRA.DIHEDRAL>
2.47355

>  <SCORE.INTRA.DIHEDRAL.0>
2.1627

>  <SCORE.INTRA.POLAR>
0

>  <SCORE.INTRA.POLAR.0>
0

>  <SCORE.INTRA.REPUL>
0

>  <SCORE.INTRA.REPUL.0>
0

>  <SCORE.INTRA.SOLV>
0.0632144

>  <SCORE.INTRA.SOLV.lig_0>
-5.95779

>  <SCORE.INTRA.VDW>
0.144708

>  <SCORE.INTRA.VDW.0>
3.81702

>  <SCORE.INTRA.norm>
0.0565237

>  <SCORE.RESTR>
0

>  <SCORE.RESTR.CAVITY>
0

>  <SCORE.RESTR.norm>
0

>  <SCORE.SYSTEM>
0

>  <SCORE.SYSTEM.CONST>
0

>  <SCORE.SYSTEM.DIHEDRAL>
0

>  <SCORE.SYSTEM.SOLV>
0

>  <SCORE.SYSTEM.norm>
0

>  <SCORE.heavy>
25

>  <SCORE.norm>
-1.99793

>  <RMSD>
1.715

$$$$
1q8n_lig
 OpenBabel11021811403D
libRbt.so/2013.1/901 2013/11/27
 25 27  0  0  0  0  0  0  0  0999 V2000
    0.8671    0.6861   -0.7530 C   0  0  0  0  0  0  0  0  0  0  0  0
    0.9134    2.0226   -1.6895 C   0  0  0  0  0  0  0  0  0  0  0  0
   -0.9743    1.2662    4.8768 N   0  0  0  0  0  0  0  0  0  0  0  0
    1.1345    1.9919   -3.0255 C   0  0  0  0  0  0  0  0  0  0  0  0
    2.5939   -4.5771   -3.0399 N   0  0  0  0  0  0  0  0  0  0  0  0
    1.1744    3.2294   -3.8385 C   0  0  0  0  0  0  0  0  0  0  0  0
    0.9851    4.4297   -3.2439 C   0  0  0  0  0  0  0  0  0  0  0  0
    0.7410    4.4846   -1.8215 C   0  0  0  0  0  0  0  0  0  0  0  0
    0.7093    3.3620   -1.0991 C   0  0  0  0  0  0  0  0  0  0  0  0
    0.3641    0.8400    0.7909 C   0  0  0  0  0  0  0  0  0  0  0  0
    0.7501   -0.0348    1.7427 C   0  0  0  0  0  0  0  0  0  0  0  0
    0.3008    0.0902    3.1571 C   0  0  0  0  0  0  0  0  0  0  0  0
   -0.5208    1.1089    3.5265 C   0  0  0  0  0  0  0  0  0  0  0  0
   -0.9496    2.0746    2.4971 C   0  0  0  0  0  0  0  0  0  0  0  0
   -0.5371    1.9462    1.2283 C   0  0  0  0  0  0  0  0  0  0  0  0
    1.3162   -0.8010   -1.3323 C   0  0  0  0  0  0  0  0  0  0  0  0
    1.8802   -0.9229   -2.7210 C   0  0  0  0  0  0  0  0  0  0  0  0
    2.2697   -2.0890   -3.2436 C   0  0  0  0  0  0  0  0  0  0  0  0
    2.1630   -3.3335   -2.4732 C   0  0  0  0  0  0  0  0  0  0  0  0
    1.6576   -3.2806   -1.2233 C   0  0  0  0  0  0  0  0  0  0  0  0
    1.2181   -1.9754   -0.6248 C   0  0  0  0  0  0  0  0  0  0  0  0
   -1.5175    2.4985    5.3615 C   0  0  0  0  0  0  0  0  0  0  0  0
   -0.8949    0.1717    5.7939 C   0  0  0  0  0  0  0  0  0  0  0  0
    2.0402   -5.8164   -2.5751 C   0  0  0  0  0  0  0  0  0  0  0  0
    3.5854   -4.6191   -4.0909 C   0  0  0  0  0  0  0  0  0  0  0  0
  1  2  1  0  0  0  0
  1 10  1  0  0  0  0
  1 16  1  0  0  0  0
  2  4  2  0  0  0  0
  2  9  1  0  0  0  0
  4  6  1  0  0  0  0
  6  7  2  0  0  0  0
  7  8  1  0  0  0  0
  8  9  2  0  0  0  0
 10 11  2  0  0  0  0
 10 15  1  0  0  0  0
 11 12  1  0  0  0  0
 12 13  2  0  0  0  0
 13  3  1  0  0  0  0
 13 14  1  0  0  0  0
 14 15  2  0  0  0  0
 16 17  2  0  0  0  0
 16 21  1  0  0  0  0
 17 18  1  0  0  0  0
 18 19  2  0  0  0  0
 19  5  1  0  0  0  0
 19 20  1  0  0  0  0
 20 21  2  0  0  0  0
 22  3  1  0  0  0  0
 23  3  1  0  0  0  0
 24  5  1  0  0  0  0
 25  5  1  0  0  0  0
M  END
>  <CHROM.1>
-170.61204045,-154.85351711,4.68365987,162.36321321,-155.05725991,0.84943789
0.05166254,-0.27161325,-3.03832854,-1.21771075,2.59243704

>  <Name>
1q8n_lig

>  <RI>
0

>  <Rbt.Current_Directory>
/home/itssahil/PROJECTS/Mol_Feturizer/New_Systems/rnas/1q8n

>  <Rbt.Executable>
rbdock ($Id: //depot/dev/client3/rdock/2013.1/src/exe/rbdock.cxx#4 $)

>  <Rbt.Library>
libRbt.so (2013.1, Build901 2013/11/27)

>  <Rbt.Parameter_File>
/export/apps/rDock/src/rDock_2013.1_src/data/scripts/dock_solv.prm

>  <Rbt.Receptor>
prm/pocket_docking_4.prm

>  <SCORE>
-50.3397

>  <SCORE.INTER>
-51.9629

>  <SCORE.INTER.CONST>
1

>  <SCORE.INTER.POLAR>
0

>  <SCORE.INTER.ROT>
5

>  <SCORE.INTER.SOLV>
9.7365

>  <SCORE.INTER.VDW>
-44.8208

>  <SCORE.INTER.norm>
-2.07852

>  <SCORE.INTRA>
1.6232

>  <SCORE.INTRA.DIHEDRAL>
3.44732

>  <SCORE.INTRA.DIHEDRAL.0>
2.1627

>  <SCORE.INTRA.POLAR>
0

>  <SCORE.INTRA.POLAR.0>
0

>  <SCORE.INTRA.REPUL>
0

>  <SCORE.INTRA.REPUL.0>
0

>  <SCORE.INTRA.SOLV>
0.0648031

>  <SCORE.INTRA.SOLV.lig_0>
-5.95779

>  <SCORE.INTRA.VDW>
-0.132856

>  <SCORE.INTRA.VDW.0>
3.81702

>  <SCORE.INTRA.norm>
0.0649282

>  <SCORE.RESTR>
0

>  <SCORE.RESTR.CAVITY>
0

>  <SCORE.RESTR.norm>
0

>  <SCORE.SYSTEM>
0

>  <SCORE.SYSTEM.CONST>
0

>  <SCORE.SYSTEM.DIHEDRAL>
0

>  <SCORE.SYSTEM.SOLV>
0

>  <SCORE.SYSTEM.norm>
0

>  <SCORE.heavy>
25

>  <SCORE.norm>
-2.01359

>  <RMSD>
1.718

$$$$
1q8n_lig
 OpenBabel11021811403D
libRbt.so/2013.1/901 2013/11/27
 25 27  0  0  0  0  0  0  0  0999 V2000
    0.9140    0.7606   -0.7594 C   0  0  0  0  0  0  0  0  0  0  0  0
    0.9293    2.0827   -1.7171 C   0  0  0  0  0  0  0  0  0  0  0  0
    2.6746   -4.4206   -3.0997 N   0  0  0  0  0  0  0  0  0  0  0  0
    1.1356    2.0341   -3.0550 C   0  0  0  0  0  0  0  0  0  0  0  0
   -1.0069    1.2145    4.8990 N   0  0  0  0  0  0  0  0  0  0  0  0
    1.1475    3.2591   -3.8876 C   0  0  0  0  0  0  0  0  0  0  0  0
    0.9468    4.4656   -3.3098 C   0  0  0  0  0  0  0  0  0  0  0  0
    0.7182    4.5394   -1.8857 C   0  0  0  0  0  0  0  0  0  0  0  0
    0.7117    3.4280   -1.1455 C   0  0  0  0  0  0  0  0  0  0  0  0
    1.3958   -0.6617   -1.3959 C   0  0  0  0  0  0  0  0  0  0  0  0
    1.1677   -1.8274   -0.7559 C   0  0  0  0  0  0  0  0  0  0  0  0
    1.6004   -3.1351   -1.3221 C   0  0  0  0  0  0  0  0  0  0  0  0
    2.2437   -3.1833   -2.5192 C   0  0  0  0  0  0  0  0  0  0  0  0
    2.4981   -1.9170   -3.2318 C   0  0  0  0  0  0  0  0  0  0  0  0
    2.1035   -0.7484   -2.7069 C   0  0  0  0  0  0  0  0  0  0  0  0
    0.4244    0.8352    0.8229 C   0  0  0  0  0  0  0  0  0  0  0  0
   -0.4370    1.9778    1.2856 C   0  0  0  0  0  0  0  0  0  0  0  0
   -0.8729    2.0917    2.5431 C   0  0  0  0  0  0  0  0  0  0  0  0
   -0.5247    1.0879    3.5555 C   0  0  0  0  0  0  0  0  0  0  0  0
    0.2514    0.0451    3.1941 C   0  0  0  0  0  0  0  0  0  0  0  0
    0.7460   -0.0942    1.7831 C   0  0  0  0  0  0  0  0  0  0  0  0
    3.6548   -4.4754   -4.1411 C   0  0  0  0  0  0  0  0  0  0  0  0
    2.1249   -5.6592   -2.6424 C   0  0  0  0  0  0  0  0  0  0  0  0
   -1.4770    2.4801    5.3845 C   0  0  0  0  0  0  0  0  0  0  0  0
   -1.0394    0.0803    5.7945 C   0  0  0  0  0  0  0  0  0  0  0  0
  1  2  1  0  0  0  0
  1 10  1  0  0  0  0
  1 16  1  0  0  0  0
  2  4  2  0  0  0  0
  2  9  1  0  0  0  0
  4  6  1  0  0  0  0
  6  7  2  0  0  0  0
  7  8  1  0  0  0  0
  8  9  2  0  0  0  0
 10 11  2  0  0  0  0
 10 15  1  0  0  0  0
 11 12  1  0  0  0  0
 12 13  2  0  0  0  0
 13  3  1  0  0  0  0
 13 14  1  0  0  0  0
 14 15  2  0  0  0  0
 16 17  2  0  0  0  0
 16 21  1  0  0  0  0
 17 18  1  0  0  0  0
 18 19  2  0  0  0  0
 19  5  1  0  0  0  0
 19 20  1  0  0  0  0
 20 21  2  0  0  0  0
 22  3  1  0  0  0  0
 23  3  1  0  0  0  0
 24  5  1  0  0  0  0
 25  5  1  0  0  0  0
M  END
>  <CHROM.1>
9.75094401,-167.01820742,20.56560310,-162.26751413,-18.95788371,0.87915397
0.11152815,-0.29146563,-0.05519021,1.20652219,-0.55478187

>  <Name>
1q8n_lig

>  <RI>
0

>  <Rbt.Current_Directory>
/home/itssahil/PROJECTS/Mol_Feturizer/New_Systems/rnas/1q8n

>  <Rbt.Executable>
rbdock ($Id: //depot/dev/client3/rdock/2013.1/src/exe/rbdock.cxx#4 $)

>  <Rbt.Library>
libRbt.so (2013.1, Build901 2013/11/27)

>  <Rbt.Parameter_File>
/export/apps/rDock/src/rDock_2013.1_src/data/scripts/dock_solv.prm

>  <Rbt.Receptor>
prm/blind_docking_20.prm

>  <SCORE>
-49.928

>  <SCORE.INTER>
-51.3884

>  <SCORE.INTER.CONST>
1

>  <SCORE.INTER.POLAR>
0

>  <SCORE.INTER.ROT>
5

>  <SCORE.INTER.SOLV>
9.77961

>  <SCORE.INTER.VDW>
-44.4521

>  <SCORE.INTER.norm>
-2.05554

>  <SCORE.INTRA>
1.46042

>  <SCORE.INTRA.DIHEDRAL>
2.53673

>  <SCORE.INTRA.DIHEDRAL.0>
2.1627

>  <SCORE.INTRA.POLAR>
0

>  <SCORE.INTRA.POLAR.0>
0

>  <SCORE.INTRA.REPUL>
0

>  <SCORE.INTRA.REPUL.0>
0

>  <SCORE.INTRA.SOLV>
0.0651345

>  <SCORE.INTRA.SOLV.lig_0>
-5.95779

>  <SCORE.INTRA.VDW>
0.159487

>  <SCORE.INTRA.VDW.0>
3.81702

>  <SCORE.INTRA.norm>
0.0584168

>  <SCORE.RESTR>
0

>  <SCORE.RESTR.CAVITY>
0

>  <SCORE.RESTR.norm>
0

>  <SCORE.SYSTEM>
0

>  <SCORE.SYSTEM.CONST>
0

>  <SCORE.SYSTEM.DIHEDRAL>
0

>  <SCORE.SYSTEM.SOLV>
0

>  <SCORE.SYSTEM.norm>
0

>  <SCORE.heavy>
25

>  <SCORE.norm>
-1.99712

>  <RMSD>
1.719

$$$$
1q8n_lig
 OpenBabel11021811403D
libRbt.so/2013.1/901 2013/11/27
 25 27  0  0  0  0  0  0  0  0999 V2000
    0.8627    0.7390   -0.7100 C   0  0  0  0  0  0  0  0  0  0  0  0
    0.8900    2.0497   -1.6831 C   0  0  0  0  0  0  0  0  0  0  0  0
    2.5419   -4.4917   -2.9993 N   0  0  0  0  0  0  0  0  0  0  0  0
    1.0563    1.9805   -3.0257 C   0  0  0  0  0  0  0  0  0  0  0  0
   -1.0301    1.2761    4.9506 N   0  0  0  0  0  0  0  0  0  0  0  0
    1.0810    3.1954   -3.8725 C   0  0  0  0  0  0  0  0  0  0  0  0
    0.9331    4.4137   -3.3033 C   0  0  0  0  0  0  0  0  0  0  0  0
    0.7477    4.5097   -1.8742 C   0  0  0  0  0  0  0  0  0  0  0  0
    0.7292    3.4070   -1.1212 C   0  0  0  0  0  0  0  0  0  0  0  0
    1.3226   -0.6967   -1.3325 C   0  0  0  0  0  0  0  0  0  0  0  0
    1.1700   -1.8420   -0.6359 C   0  0  0  0  0  0  0  0  0  0  0  0
    1.5842   -3.1616   -1.1883 C   0  0  0  0  0  0  0  0  0  0  0  0
    2.1321   -3.2419   -2.4303 C   0  0  0  0  0  0  0  0  0  0  0  0
    2.3031   -1.9982   -3.2048 C   0  0  0  0  0  0  0  0  0  0  0  0
    1.9266   -0.8186   -2.6917 C   0  0  0  0  0  0  0  0  0  0  0  0
    0.3824    0.8383    0.8738 C   0  0  0  0  0  0  0  0  0  0  0  0
   -0.5086    1.9664    1.3153 C   0  0  0  0  0  0  0  0  0  0  0  0
   -0.9387    2.0985    2.5730 C   0  0  0  0  0  0  0  0  0  0  0  0
   -0.5540    1.1305    3.6069 C   0  0  0  0  0  0  0  0  0  0  0  0
    0.2497    0.1021    3.2649 C   0  0  0  0  0  0  0  0  0  0  0  0
    0.7380   -0.0575    1.8538 C   0  0  0  0  0  0  0  0  0  0  0  0
    3.4823   -4.5693   -4.0755 C   0  0  0  0  0  0  0  0  0  0  0  0
    2.0108   -5.7199   -2.4947 C   0  0  0  0  0  0  0  0  0  0  0  0
   -0.9997    0.1630    5.8553 C   0  0  0  0  0  0  0  0  0  0  0  0
   -1.5445    2.5384    5.4316 C   0  0  0  0  0  0  0  0  0  0  0  0
  1  2  1  0  0  0  0
  1 10  1  0  0  0  0
  1 16  1  0  0  0  0
  2  4  2  0  0  0  0
  2  9  1  0  0  0  0
  4  6  1  0  0  0  0
  6  7  2  0  0  0  0
  7  8  1  0  0  0  0
  8  9  2  0  0  0  0
 10 11  2  0  0  0  0
 10 15  1  0  0  0  0
 11 12  1  0  0  0  0
 12 13  2  0  0  0  0
 13  3  1  0  0  0  0
 13 14  1  0  0  0  0
 14 15  2  0  0  0  0
 16 17  2  0  0  0  0
 16 21  1  0  0  0  0
 17 18  1  0  0  0  0
 18 19  2  0  0  0  0
 19  5  1  0  0  0  0
 19 20  1  0  0  0  0
 20 21  2  0  0  0  0
 22  3  1  0  0  0  0
 23  3  1  0  0  0  0
 24  5  1  0  0  0  0
 25  5  1  0  0  0  0
M  END
>  <CHROM.1>
11.40590855,-171.85092056,23.09629124,-159.52688467,161.48781143,0.82006120
0.09397911,-0.23496922,-0.06602624,1.21847509,-0.55598572

>  <Name>
1q8n_lig

>  <RI>
0

>  <Rbt.Current_Directory>
/home/itssahil/PROJECTS/Mol_Feturizer/New_Systems/rnas/1q8n

>  <Rbt.Executable>
rbdock ($Id: //depot/dev/client3/rdock/2013.1/src/exe/rbdock.cxx#4 $)

>  <Rbt.Library>
libRbt.so (2013.1, Build901 2013/11/27)

>  <Rbt.Parameter_File>
/export/apps/rDock/src/rDock_2013.1_src/data/scripts/dock_solv.prm

>  <Rbt.Receptor>
prm/blind_docking_20.prm

>  <SCORE>
-49.7299

>  <SCORE.INTER>
-51.3088

>  <SCORE.INTER.CONST>
1

>  <SCORE.INTER.POLAR>
0

>  <SCORE.INTER.ROT>
5

>  <SCORE.INTER.SOLV>
9.6824

>  <SCORE.INTER.VDW>
-44.3667

>  <SCORE.INTER.norm>
-2.05235

>  <SCORE.INTRA>
1.57891

>  <SCORE.INTRA.DIHEDRAL>
2.85444

>  <SCORE.INTRA.DIHEDRAL.0>
2.1627

>  <SCORE.INTRA.POLAR>
0

>  <SCORE.INTRA.POLAR.0>
0

>  <SCORE.INTRA.REPUL>
0

>  <SCORE.INTRA.REPUL.0>
0

>  <SCORE.INTRA.SOLV>
0.0643971

>  <SCORE.INTRA.SOLV.lig_0>
-5.95779

>  <SCORE.INTRA.VDW>
0.119488

>  <SCORE.INTRA.VDW.0>
3.81702

>  <SCORE.INTRA.norm>
0.0631563

>  <SCORE.RESTR>
0

>  <SCORE.RESTR.CAVITY>
0

>  <SCORE.RESTR.norm>
0

>  <SCORE.SYSTEM>
0

>  <SCORE.SYSTEM.CONST>
0

>  <SCORE.SYSTEM.DIHEDRAL>
0

>  <SCORE.SYSTEM.SOLV>
0

>  <SCORE.SYSTEM.norm>
0

>  <SCORE.heavy>
25

>  <SCORE.norm>
-1.9892

>  <RMSD>
1.719

$$$$
1q8n_lig
 OpenBabel11021811413D
libRbt.so/2013.1/901 2013/11/27
 25 27  0  0  0  0  0  0  0  0999 V2000
    0.8839    0.7090   -0.7358 C   0  0  0  0  0  0  0  0  0  0  0  0
    0.8970    2.0193   -1.7097 C   0  0  0  0  0  0  0  0  0  0  0  0
    2.6074   -4.5071   -3.0258 N   0  0  0  0  0  0  0  0  0  0  0  0
    1.0527    1.9502   -3.0535 C   0  0  0  0  0  0  0  0  0  0  0  0
   -1.0004    1.2333    4.9287 N   0  0  0  0  0  0  0  0  0  0  0  0
    1.0646    3.1649   -3.9010 C   0  0  0  0  0  0  0  0  0  0  0  0
    0.9155    4.3827   -3.3312 C   0  0  0  0  0  0  0  0  0  0  0  0
    0.7413    4.4785   -1.9006 C   0  0  0  0  0  0  0  0  0  0  0  0
    0.7343    3.3761   -1.1471 C   0  0  0  0  0  0  0  0  0  0  0  0
    1.3560   -0.7227   -1.3584 C   0  0  0  0  0  0  0  0  0  0  0  0
    1.2285   -1.8672   -0.6555 C   0  0  0  0  0  0  0  0  0  0  0  0
    1.6541   -3.1831   -1.2079 C   0  0  0  0  0  0  0  0  0  0  0  0
    2.1873   -3.2609   -2.4565 C   0  0  0  0  0  0  0  0  0  0  0  0
    2.3310   -2.0180   -3.2380 C   0  0  0  0  0  0  0  0  0  0  0  0
    1.9444   -0.8417   -2.7247 C   0  0  0  0  0  0  0  0  0  0  0  0
    0.4060    0.8046    0.8488 C   0  0  0  0  0  0  0  0  0  0  0  0
   -0.4825    1.9330    1.2947 C   0  0  0  0  0  0  0  0  0  0  0  0
   -0.9107    2.0623    2.5534 C   0  0  0  0  0  0  0  0  0  0  0  0
   -0.5264    1.0907    3.5840 C   0  0  0  0  0  0  0  0  0  0  0  0
    0.2750    0.0618    3.2380 C   0  0  0  0  0  0  0  0  0  0  0  0
    0.7612   -0.0946    1.8259 C   0  0  0  0  0  0  0  0  0  0  0  0
    3.5636   -4.5778   -4.0883 C   0  0  0  0  0  0  0  0  0  0  0  0
    2.0709   -5.7387   -2.5352 C   0  0  0  0  0  0  0  0  0  0  0  0
   -0.9724    0.1172    5.8298 C   0  0  0  0  0  0  0  0  0  0  0  0
   -1.5104    2.4956    5.4146 C   0  0  0  0  0  0  0  0  0  0  0  0
  1  2  1  0  0  0  0
  1 10  1  0  0  0  0
  1 16  1  0  0  0  0
  2  4  2  0  0  0  0
  2  9  1  0  0  0  0
  4  6  1  0  0  0  0
  6  7  2  0  0  0  0
  7  8  1  0  0  0  0
  8  9  2  0  0  0  0
 10 11  2  0  0  0  0
 10 15  1  0  0  0  0
 11 12  1  0  0  0  0
 12 13  2  0  0  0  0
 13  3  1  0  0  0  0
 13 14  1  0  0  0  0
 14 15  2  0  0  0  0
 16 17  2  0  0  0  0
 16 21  1  0  0  0  0
 17 18  1  0  0  0  0
 18 19  2  0  0  0  0
 19  5  1  0  0  0  0
 19 20  1  0  0  0  0
 20 21  2  0  0  0  0
 22  3  1  0  0  0  0
 23  3  1  0  0  0  0
 24  5  1  0  0  0  0
 25  5  1  0  0  0  0
M  END
>  <CHROM.1>
11.84615012,-172.55059724,22.42495092,-157.72309374,161.41079220,0.84885774
0.06426867,-0.26027923,-0.04137835,1.21568475,-0.57989564

>  <Name>
1q8n_lig

>  <RI>
0

>  <Rbt.Current_Directory>
/home/itssahil/PROJECTS/Mol_Feturizer/New_Systems/rnas/1q8n

>  <Rbt.Executable>
rbdock ($Id: //depot/dev/client3/rdock/2013.1/src/exe/rbdock.cxx#4 $)

>  <Rbt.Library>
libRbt.so (2013.1, Build901 2013/11/27)

>  <Rbt.Parameter_File>
/export/apps/rDock/src/rDock_2013.1_src/data/scripts/dock_solv.prm

>  <Rbt.Receptor>
prm/pocket_docking_6.prm

>  <SCORE>
-49.819

>  <SCORE.INTER>
-51.4687

>  <SCORE.INTER.CONST>
1

>  <SCORE.INTER.POLAR>
0

>  <SCORE.INTER.ROT>
5

>  <SCORE.INTER.SOLV>
9.6454

>  <SCORE.INTER.VDW>
-44.4609

>  <SCORE.INTER.norm>
-2.05875

>  <SCORE.INTRA>
1.64972

>  <SCORE.INTRA.DIHEDRAL>
3.13835

>  <SCORE.INTRA.DIHEDRAL.0>
2.1627

>  <SCORE.INTRA.POLAR>
0

>  <SCORE.INTRA.POLAR.0>
0

>  <SCORE.INTRA.REPUL>
0

>  <SCORE.INTRA.REPUL.0>
0

>  <SCORE.INTRA.SOLV>
0.0649087

>  <SCORE.INTRA.SOLV.lig_0>
-5.95779

>  <SCORE.INTRA.VDW>
0.048088

>  <SCORE.INTRA.VDW.0>
3.81702

>  <SCORE.INTRA.norm>
0.0659886

>  <SCORE.RESTR>
0

>  <SCORE.RESTR.CAVITY>
0

>  <SCORE.RESTR.norm>
0

>  <SCORE.SYSTEM>
0

>  <SCORE.SYSTEM.CONST>
0

>  <SCORE.SYSTEM.DIHEDRAL>
0

>  <SCORE.SYSTEM.SOLV>
0

>  <SCORE.SYSTEM.norm>
0

>  <SCORE.heavy>
25

>  <SCORE.norm>
-1.99276

>  <RMSD>
1.720

$$$$
1q8n_lig
 OpenBabel11021811413D
libRbt.so/2013.1/901 2013/11/27
 25 27  0  0  0  0  0  0  0  0999 V2000
    0.9117    0.7606   -0.7562 C   0  0  0  0  0  0  0  0  0  0  0  0
    0.9233    2.0826   -1.7142 C   0  0  0  0  0  0  0  0  0  0  0  0
    2.6842   -4.4329   -3.0600 N   0  0  0  0  0  0  0  0  0  0  0  0
    1.1085    2.0324   -3.0551 C   0  0  0  0  0  0  0  0  0  0  0  0
   -1.0118    1.2105    4.9016 N   0  0  0  0  0  0  0  0  0  0  0  0
    1.1178    3.2573   -3.8879 C   0  0  0  0  0  0  0  0  0  0  0  0
    0.9363    4.4655   -3.3071 C   0  0  0  0  0  0  0  0  0  0  0  0
    0.7304    4.5410   -1.8795 C   0  0  0  0  0  0  0  0  0  0  0  0
    0.7260    3.4297   -1.1393 C   0  0  0  0  0  0  0  0  0  0  0  0
    1.3980   -0.6603   -1.3924 C   0  0  0  0  0  0  0  0  0  0  0  0
    2.0044   -0.7165   -2.5963 C   0  0  0  0  0  0  0  0  0  0  0  0
    2.4550   -2.0047   -3.1925 C   0  0  0  0  0  0  0  0  0  0  0  0
    2.2638   -3.1726   -2.5227 C   0  0  0  0  0  0  0  0  0  0  0  0
    1.6040   -3.1267   -1.2042 C   0  0  0  0  0  0  0  0  0  0  0  0
    1.2030   -1.9587   -0.6830 C   0  0  0  0  0  0  0  0  0  0  0  0
    0.4212    0.8339    0.8258 C   0  0  0  0  0  0  0  0  0  0  0  0
   -0.4373    1.9782    1.2898 C   0  0  0  0  0  0  0  0  0  0  0  0
   -0.8737    2.0912    2.5473 C   0  0  0  0  0  0  0  0  0  0  0  0
   -0.5291    1.0848    3.5582 C   0  0  0  0  0  0  0  0  0  0  0  0
    0.2444    0.0404    3.1956 C   0  0  0  0  0  0  0  0  0  0  0  0
    0.7395   -0.0980    1.7847 C   0  0  0  0  0  0  0  0  0  0  0  0
    3.6506   -4.5310   -4.1111 C   0  0  0  0  0  0  0  0  0  0  0  0
    2.1376   -5.6511   -2.5477 C   0  0  0  0  0  0  0  0  0  0  0  0
   -1.5042    2.4702    5.3803 C   0  0  0  0  0  0  0  0  0  0  0  0
   -1.0225    0.0812    5.8037 C   0  0  0  0  0  0  0  0  0  0  0  0
  1  2  1  0  0  0  0
  1 10  1  0  0  0  0
  1 16  1  0  0  0  0
  2  4  2  0  0  0  0
  2  9  1  0  0  0  0
  4  6  1  0  0  0  0
  6  7  2  0  0  0  0
  7  8  1  0  0  0  0
  8  9  2  0  0  0  0
 10 11  2  0  0  0  0
 10 15  1  0  0  0  0
 11 12  1  0  0  0  0
 12 13  2  0  0  0  0
 13  3  1  0  0  0  0
 13 14  1  0  0  0  0
 14 15  2  0  0  0  0
 16 17  2  0  0  0  0
 16 21  1  0  0  0  0
 17 18  1  0  0  0  0
 18 19  2  0  0  0  0
 19  5  1  0  0  0  0
 19 20  1  0  0  0  0
 20 21  2  0  0  0  0
 22  3  1  0  0  0  0
 23  3  1  0  0  0  0
 24  5  1  0  0  0  0
 25  5  1  0  0  0  0
M  END
>  <CHROM.1>
10.87535309,10.99575989,20.21329450,18.51630931,-17.67285314,0.87324644,0.10115799
-0.26889321,-0.05417505,1.20560674,-0.56456948

>  <Name>
1q8n_lig

>  <RI>
0

>  <Rbt.Current_Directory>
/home/itssahil/PROJECTS/Mol_Feturizer/New_Systems/rnas/1q8n

>  <Rbt.Executable>
rbdock ($Id: //depot/dev/client3/rdock/2013.1/src/exe/rbdock.cxx#4 $)

>  <Rbt.Library>
libRbt.so (2013.1, Build901 2013/11/27)

>  <Rbt.Parameter_File>
/export/apps/rDock/src/rDock_2013.1_src/data/scripts/dock_solv.prm

>  <Rbt.Receptor>
prm/pocket_docking_7.prm

>  <SCORE>
-49.6765

>  <SCORE.INTER>
-51.2493

>  <SCORE.INTER.CONST>
1

>  <SCORE.INTER.POLAR>
0

>  <SCORE.INTER.ROT>
5

>  <SCORE.INTER.SOLV>
9.72725

>  <SCORE.INTER.VDW>
-44.342

>  <SCORE.INTER.norm>
-2.04997

>  <SCORE.INTRA>
1.57287

>  <SCORE.INTRA.DIHEDRAL>
2.46786

>  <SCORE.INTRA.DIHEDRAL.0>
2.1627

>  <SCORE.INTRA.POLAR>
0

>  <SCORE.INTRA.POLAR.0>
0

>  <SCORE.INTRA.REPUL>
0

>  <SCORE.INTRA.REPUL.0>
0

>  <SCORE.INTRA.SOLV>
0.0656397

>  <SCORE.INTRA.SOLV.lig_0>
-5.95779

>  <SCORE.INTRA.VDW>
0.306126

>  <SCORE.INTRA.VDW.0>
3.81702

>  <SCORE.INTRA.norm>
0.062915

>  <SCORE.RESTR>
0

>  <SCORE.RESTR.CAVITY>
0

>  <SCORE.RESTR.norm>
0

>  <SCORE.SYSTEM>
0

>  <SCORE.SYSTEM.CONST>
0

>  <SCORE.SYSTEM.DIHEDRAL>
0

>  <SCORE.SYSTEM.SOLV>
0

>  <SCORE.SYSTEM.norm>
0

>  <SCORE.heavy>
25

>  <SCORE.norm>
-1.98706

>  <RMSD>
1.720

$$$$
1q8n_lig
 OpenBabel11021811413D
libRbt.so/2013.1/901 2013/11/27
 25 27  0  0  0  0  0  0  0  0999 V2000
    0.8992    0.7376   -0.7278 C   0  0  0  0  0  0  0  0  0  0  0  0
    0.9220    2.0515   -1.6966 C   0  0  0  0  0  0  0  0  0  0  0  0
    2.6226   -4.4746   -3.0266 N   0  0  0  0  0  0  0  0  0  0  0  0
    1.1188    1.9896   -3.0354 C   0  0  0  0  0  0  0  0  0  0  0  0
   -1.0122    1.2513    4.9287 N   0  0  0  0  0  0  0  0  0  0  0  0
    1.1380    3.2074   -3.8783 C   0  0  0  0  0  0  0  0  0  0  0  0
    0.9539    4.4208   -3.3092 C   0  0  0  0  0  0  0  0  0  0  0  0
    0.7358    4.5088   -1.8842 C   0  0  0  0  0  0  0  0  0  0  0  0
    0.7225    3.4037   -1.1348 C   0  0  0  0  0  0  0  0  0  0  0  0
    1.3709   -0.6931   -1.3529 C   0  0  0  0  0  0  0  0  0  0  0  0
    1.1583   -1.8496   -0.6913 C   0  0  0  0  0  0  0  0  0  0  0  0
    1.5821   -3.1648   -1.2467 C   0  0  0  0  0  0  0  0  0  0  0  0
    2.2010   -3.2296   -2.4559 C   0  0  0  0  0  0  0  0  0  0  0  0
    2.4383   -1.9735   -3.1921 C   0  0  0  0  0  0  0  0  0  0  0  0
    2.0520   -0.7980   -2.6766 C   0  0  0  0  0  0  0  0  0  0  0  0
    0.4120    0.8287    0.8543 C   0  0  0  0  0  0  0  0  0  0  0  0
   -0.4429    1.9797    1.3080 C   0  0  0  0  0  0  0  0  0  0  0  0
   -0.8766    2.1069    2.5650 C   0  0  0  0  0  0  0  0  0  0  0  0
   -0.5324    1.1104    3.5858 C   0  0  0  0  0  0  0  0  0  0  0  0
    0.2380    0.0604    3.2327 C   0  0  0  0  0  0  0  0  0  0  0  0
    0.7301   -0.0939    1.8224 C   0  0  0  0  0  0  0  0  0  0  0  0
    3.5946   -4.5441   -4.0749 C   0  0  0  0  0  0  0  0  0  0  0  0
    2.0715   -5.7061   -2.5522 C   0  0  0  0  0  0  0  0  0  0  0  0
   -1.0288    0.1233    5.8150 C   0  0  0  0  0  0  0  0  0  0  0  0
   -1.4836    2.5236    5.4273 C   0  0  0  0  0  0  0  0  0  0  0  0
  1  2  1  0  0  0  0
  1 10  1  0  0  0  0
  1 16  1  0  0  0  0
  2  4  2  0  0  0  0
  2  9  1  0  0  0  0
  4  6  1  0  0  0  0
  6  7  2  0  0  0  0
  7  8  1  0  0  0  0
  8  9  2  0  0  0  0
 10 11  2  0  0  0  0
 10 15  1  0  0  0  0
 11 12  1  0  0  0  0
 12 13  2  0  0  0  0
 13  3  1  0  0  0  0
 13 14  1  0  0  0  0
 14 15  2  0  0  0  0
 16 17  2  0  0  0  0
 16 21  1  0  0  0  0
 17 18  1  0  0  0  0
 18 19  2  0  0  0  0
 19  5  1  0  0  0  0
 19 20  1  0  0  0  0
 20 21  2  0  0  0  0
 22  3  1  0  0  0  0
 23  3  1  0  0  0  0
 24  5  1  0  0  0  0
 25  5  1  0  0  0  0
M  END
>  <CHROM.1>
10.14474781,-168.27255423,20.65030564,-161.42882228,161.34945160,0.86105376
0.09254225,-0.25427892,-0.06655777,1.21159571,-0.55276416

>  <Name>
1q8n_lig

>  <RI>
0

>  <Rbt.Current_Directory>
/home/itssahil/PROJECTS/Mol_Feturizer/New_Systems/rnas/1q8n

>  <Rbt.Executable>
rbdock ($Id: //depot/dev/client3/rdock/2013.1/src/exe/rbdock.cxx#4 $)

>  <Rbt.Library>
libRbt.so (2013.1, Build901 2013/11/27)

>  <Rbt.Parameter_File>
/export/apps/rDock/src/rDock_2013.1_src/data/scripts/dock_solv.prm

>  <Rbt.Receptor>
prm/pocket_docking_6.prm

>  <SCORE>
-49.8456

>  <SCORE.INTER>
-51.3936

>  <SCORE.INTER.CONST>
1

>  <SCORE.INTER.POLAR>
0

>  <SCORE.INTER.ROT>
5

>  <SCORE.INTER.SOLV>
9.73505

>  <SCORE.INTER.VDW>
-44.4408

>  <SCORE.INTER.norm>
-2.05574

>  <SCORE.INTRA>
1.54802

>  <SCORE.INTRA.DIHEDRAL>
2.60571

>  <SCORE.INTRA.DIHEDRAL.0>
2.1627

>  <SCORE.INTRA.POLAR>
0

>  <SCORE.INTRA.POLAR.0>
0

>  <SCORE.INTRA.REPUL>
0

>  <SCORE.INTRA.REPUL.0>
0

>  <SCORE.INTRA.SOLV>
0.0654853

>  <SCORE.INTRA.SOLV.lig_0>
-5.95779

>  <SCORE.INTRA.VDW>
0.212425

>  <SCORE.INTRA.VDW.0>
3.81702

>  <SCORE.INTRA.norm>
0.061921

>  <SCORE.RESTR>
0

>  <SCORE.RESTR.CAVITY>
0

>  <SCORE.RESTR.norm>
0

>  <SCORE.SYSTEM>
0

>  <SCORE.SYSTEM.CONST>
0

>  <SCORE.SYSTEM.DIHEDRAL>
0

>  <SCORE.SYSTEM.SOLV>
0

>  <SCORE.SYSTEM.norm>
0

>  <SCORE.heavy>
25

>  <SCORE.norm>
-1.99382

>  <RMSD>
1.722

$$$$
1q8n_lig
 OpenBabel11021811413D
libRbt.so/2013.1/901 2013/11/27
 25 27  0  0  0  0  0  0  0  0999 V2000
    0.8635    0.6708   -0.7785 C   0  0  0  0  0  0  0  0  0  0  0  0
    0.8938    2.0054   -1.7183 C   0  0  0  0  0  0  0  0  0  0  0  0
   -0.9416    1.2122    4.8669 N   0  0  0  0  0  0  0  0  0  0  0  0
    1.0648    1.9700   -3.0616 C   0  0  0  0  0  0  0  0  0  0  0  0
    2.6276   -4.5830   -3.0584 N   0  0  0  0  0  0  0  0  0  0  0  0
    1.0920    3.2058   -3.8776 C   0  0  0  0  0  0  0  0  0  0  0  0
    0.9418    4.4094   -3.2785 C   0  0  0  0  0  0  0  0  0  0  0  0
    0.7515    4.4694   -1.8481 C   0  0  0  0  0  0  0  0  0  0  0  0
    0.7307    3.3482   -1.1231 C   0  0  0  0  0  0  0  0  0  0  0  0
    0.3673    0.8243    0.7676 C   0  0  0  0  0  0  0  0  0  0  0  0
   -0.4232    1.8486    1.1500 C   0  0  0  0  0  0  0  0  0  0  0  0
   -0.8857    2.0045    2.5570 C   0  0  0  0  0  0  0  0  0  0  0  0
   -0.5167    1.0998    3.5029 C   0  0  0  0  0  0  0  0  0  0  0  0
    0.3457   -0.0268    3.0992 C   0  0  0  0  0  0  0  0  0  0  0  0
    0.7545   -0.1511    1.8288 C   0  0  0  0  0  0  0  0  0  0  0  0
    1.3217   -0.8139   -1.3567 C   0  0  0  0  0  0  0  0  0  0  0  0
    1.9149   -0.9292   -2.7338 C   0  0  0  0  0  0  0  0  0  0  0  0
    2.3130   -2.0931   -3.2546 C   0  0  0  0  0  0  0  0  0  0  0  0
    2.1873   -3.3417   -2.4938 C   0  0  0  0  0  0  0  0  0  0  0  0
    1.6555   -3.2949   -1.2547 C   0  0  0  0  0  0  0  0  0  0  0  0
    1.2060   -1.9922   -0.6582 C   0  0  0  0  0  0  0  0  0  0  0  0
   -0.8362    0.1251    5.7918 C   0  0  0  0  0  0  0  0  0  0  0  0
   -1.4927    2.4406    5.3493 C   0  0  0  0  0  0  0  0  0  0  0  0
    3.6520   -4.6001   -4.0627 C   0  0  0  0  0  0  0  0  0  0  0  0
    2.0622   -5.8434   -2.6325 C   0  0  0  0  0  0  0  0  0  0  0  0
  1  2  1  0  0  0  0
  1 10  1  0  0  0  0
  1 16  1  0  0  0  0
  2  4  2  0  0  0  0
  2  9  1  0  0  0  0
  4  6  1  0  0  0  0
  6  7  2  0  0  0  0
  7  8  1  0  0  0  0
  8  9  2  0  0  0  0
 10 11  2  0  0  0  0
 10 15  1  0  0  0  0
 11 12  1  0  0  0  0
 12 13  2  0  0  0  0
 13  3  1  0  0  0  0
 13 14  1  0  0  0  0
 14 15  2  0  0  0  0
 16 17  2  0  0  0  0
 16 21  1  0  0  0  0
 17 18  1  0  0  0  0
 18 19  2  0  0  0  0
 19  5  1  0  0  0  0
 19 20  1  0  0  0  0
 20 21  2  0  0  0  0
 22  3  1  0  0  0  0
 23  3  1  0  0  0  0
 24  5  1  0  0  0  0
 25  5  1  0  0  0  0
M  END
>  <CHROM.1>
-168.38265681,23.09077583,6.38286324,164.77319512,25.78443726,0.86560648
0.01995188,-0.28961670,-3.07038613,-1.21917264,2.56580832

>  <Name>
1q8n_lig

>  <RI>
0

>  <Rbt.Current_Directory>
/home/itssahil/PROJECTS/Mol_Feturizer/New_Systems/rnas/1q8n

>  <Rbt.Executable>
rbdock ($Id: //depot/dev/client3/rdock/2013.1/src/exe/rbdock.cxx#4 $)

>  <Rbt.Library>
libRbt.so (2013.1, Build901 2013/11/27)

>  <Rbt.Parameter_File>
/export/apps/rDock/src/rDock_2013.1_src/data/scripts/dock_solv.prm

>  <Rbt.Receptor>
prm/pocket_docking_8.prm

>  <SCORE>
-50.0852

>  <SCORE.INTER>
-51.6953

>  <SCORE.INTER.CONST>
1

>  <SCORE.INTER.POLAR>
0

>  <SCORE.INTER.ROT>
5

>  <SCORE.INTER.SOLV>
9.60915

>  <SCORE.INTER.VDW>
-44.5999

>  <SCORE.INTER.norm>
-2.06781

>  <SCORE.INTRA>
1.6101

>  <SCORE.INTRA.DIHEDRAL>
3.29892

>  <SCORE.INTRA.DIHEDRAL.0>
2.1627

>  <SCORE.INTRA.POLAR>
0

>  <SCORE.INTRA.POLAR.0>
0

>  <SCORE.INTRA.REPUL>
0

>  <SCORE.INTRA.REPUL.0>
0

>  <SCORE.INTRA.SOLV>
0.0647503

>  <SCORE.INTRA.SOLV.lig_0>
-5.95779

>  <SCORE.INTRA.VDW>
-0.0717314

>  <SCORE.INTRA.VDW.0>
3.81702

>  <SCORE.INTRA.norm>
0.0644041

>  <SCORE.RESTR>
0

>  <SCORE.RESTR.CAVITY>
0

>  <SCORE.RESTR.norm>
0

>  <SCORE.SYSTEM>
0

>  <SCORE.SYSTEM.CONST>
0

>  <SCORE.SYSTEM.DIHEDRAL>
0

>  <SCORE.SYSTEM.SOLV>
0

>  <SCORE.SYSTEM.norm>
0

>  <SCORE.heavy>
25

>  <SCORE.norm>
-2.00341

>  <RMSD>
1.724

$$$$
1q8n_lig
 OpenBabel11021811403D
libRbt.so/2013.1/901 2013/11/27
 25 27  0  0  0  0  0  0  0  0999 V2000
    0.8669    0.6978   -0.7837 C   0  0  0  0  0  0  0  0  0  0  0  0
    0.8947    2.0349   -1.7200 C   0  0  0  0  0  0  0  0  0  0  0  0
   -0.9165    1.2254    4.8699 N   0  0  0  0  0  0  0  0  0  0  0  0
    1.0863    2.0048   -3.0607 C   0  0  0  0  0  0  0  0  0  0  0  0
    2.6195   -4.5510   -3.0838 N   0  0  0  0  0  0  0  0  0  0  0  0
    1.1104    3.2428   -3.8734 C   0  0  0  0  0  0  0  0  0  0  0  0
    0.9361    4.4430   -3.2741 C   0  0  0  0  0  0  0  0  0  0  0  0
    0.7235    4.4973   -1.8466 C   0  0  0  0  0  0  0  0  0  0  0  0
    0.7058    3.3742   -1.1244 C   0  0  0  0  0  0  0  0  0  0  0  0
    0.3765    0.8475    0.7647 C   0  0  0  0  0  0  0  0  0  0  0  0
   -0.4352    1.8551    1.1469 C   0  0  0  0  0  0  0  0  0  0  0  0
   -0.8928    2.0073    2.5559 C   0  0  0  0  0  0  0  0  0  0  0  0
   -0.4974    1.1161    3.5039 C   0  0  0  0  0  0  0  0  0  0  0  0
    0.3885    0.0077    3.1004 C   0  0  0  0  0  0  0  0  0  0  0  0
    0.7925   -0.1134    1.8281 C   0  0  0  0  0  0  0  0  0  0  0  0
    1.3219   -0.7857   -1.3676 C   0  0  0  0  0  0  0  0  0  0  0  0
    1.9141   -0.8970   -2.7454 C   0  0  0  0  0  0  0  0  0  0  0  0
    2.3096   -2.0598   -3.2707 C   0  0  0  0  0  0  0  0  0  0  0  0
    2.1820   -3.3110   -2.5145 C   0  0  0  0  0  0  0  0  0  0  0  0
    1.6510   -3.2676   -1.2749 C   0  0  0  0  0  0  0  0  0  0  0  0
    1.2044   -1.9662   -0.6734 C   0  0  0  0  0  0  0  0  0  0  0  0
   -1.4701    2.4320    5.4047 C   0  0  0  0  0  0  0  0  0  0  0  0
   -0.7906    0.1070    5.7523 C   0  0  0  0  0  0  0  0  0  0  0  0
    2.0595   -5.7931   -2.6342 C   0  0  0  0  0  0  0  0  0  0  0  0
    3.6242   -4.5866   -4.1225 C   0  0  0  0  0  0  0  0  0  0  0  0
  1  2  1  0  0  0  0
  1 10  1  0  0  0  0
  1 16  1  0  0  0  0
  2  4  2  0  0  0  0
  2  9  1  0  0  0  0
  4  6  1  0  0  0  0
  6  7  2  0  0  0  0
  7  8  1  0  0  0  0
  8  9  2  0  0  0  0
 10 11  2  0  0  0  0
 10 15  1  0  0  0  0
 11 12  1  0  0  0  0
 12 13  2  0  0  0  0
 13  3  1  0  0  0  0
 13 14  1  0  0  0  0
 14 15  2  0  0  0  0
 16 17  2  0  0  0  0
 16 21  1  0  0  0  0
 17 18  1  0  0  0  0
 18 19  2  0  0  0  0
 19  5  1  0  0  0  0
 19 20  1  0  0  0  0
 20 21  2  0  0  0  0
 22  3  1  0  0  0  0
 23  3  1  0  0  0  0
 24  5  1  0  0  0  0
 25  5  1  0  0  0  0
M  END
>  <CHROM.1>
-169.69974673,24.53187010,6.58141594,-16.74857862,-155.58993398,0.87032992
0.04343028,-0.29635371,-3.07866530,-1.22240765,2.56184115

>  <Name>
1q8n_lig

>  <RI>
0

>  <Rbt.Current_Directory>
/home/itssahil/PROJECTS/Mol_Feturizer/New_Systems/rnas/1q8n

>  <Rbt.Executable>
rbdock ($Id: //depot/dev/client3/rdock/2013.1/src/exe/rbdock.cxx#4 $)

>  <Rbt.Library>
libRbt.so (2013.1, Build901 2013/11/27)

>  <Rbt.Parameter_File>
/export/apps/rDock/src/rDock_2013.1_src/data/scripts/dock_solv.prm

>  <Rbt.Receptor>
prm/pocket_docking_4.prm

>  <SCORE>
-50.0731

>  <SCORE.INTER>
-51.6895

>  <SCORE.INTER.CONST>
1

>  <SCORE.INTER.POLAR>
0

>  <SCORE.INTER.ROT>
5

>  <SCORE.INTER.SOLV>
9.65865

>  <SCORE.INTER.VDW>
-44.6126

>  <SCORE.INTER.norm>
-2.06758

>  <SCORE.INTRA>
1.61645

>  <SCORE.INTRA.DIHEDRAL>
3.24306

>  <SCORE.INTRA.DIHEDRAL.0>
2.1627

>  <SCORE.INTRA.POLAR>
0

>  <SCORE.INTRA.POLAR.0>
0

>  <SCORE.INTRA.REPUL>
0

>  <SCORE.INTRA.REPUL.0>
0

>  <SCORE.INTRA.SOLV>
0.0641604

>  <SCORE.INTRA.SOLV.lig_0>
-5.95779

>  <SCORE.INTRA.VDW>
-0.0371562

>  <SCORE.INTRA.VDW.0>
3.81702

>  <SCORE.INTRA.norm>
0.0646582

>  <SCORE.RESTR>
0

>  <SCORE.RESTR.CAVITY>
0

>  <SCORE.RESTR.norm>
0

>  <SCORE.SYSTEM>
0

>  <SCORE.SYSTEM.CONST>
0

>  <SCORE.SYSTEM.DIHEDRAL>
0

>  <SCORE.SYSTEM.SOLV>
0

>  <SCORE.SYSTEM.norm>
0

>  <SCORE.heavy>
25

>  <SCORE.norm>
-2.00292

>  <RMSD>
1.726

$$$$
1q8n_lig
 OpenBabel11021811403D
libRbt.so/2013.1/901 2013/11/27
 25 27  0  0  0  0  0  0  0  0999 V2000
    0.8786    0.7350   -0.7176 C   0  0  0  0  0  0  0  0  0  0  0  0
    0.9060    2.0499   -1.6849 C   0  0  0  0  0  0  0  0  0  0  0  0
    2.5649   -4.4842   -3.0282 N   0  0  0  0  0  0  0  0  0  0  0  0
    1.0856    1.9877   -3.0260 C   0  0  0  0  0  0  0  0  0  0  0  0
   -1.0217    1.2445    4.9430 N   0  0  0  0  0  0  0  0  0  0  0  0
    1.1097    3.2064   -3.8674 C   0  0  0  0  0  0  0  0  0  0  0  0
    0.9478    4.4211   -3.2945 C   0  0  0  0  0  0  0  0  0  0  0  0
    0.7482    4.5097   -1.8669 C   0  0  0  0  0  0  0  0  0  0  0  0
    0.7303    3.4037   -1.1188 C   0  0  0  0  0  0  0  0  0  0  0  0
    1.3404   -0.6976   -1.3459 C   0  0  0  0  0  0  0  0  0  0  0  0
    1.1761   -1.8477   -0.6599 C   0  0  0  0  0  0  0  0  0  0  0  0
    1.5917   -3.1644   -1.2178 C   0  0  0  0  0  0  0  0  0  0  0  0
    2.1532   -3.2373   -2.4542 C   0  0  0  0  0  0  0  0  0  0  0  0
    2.3373   -1.9883   -3.2171 C   0  0  0  0  0  0  0  0  0  0  0  0
    1.9592   -0.8113   -2.6992 C   0  0  0  0  0  0  0  0  0  0  0  0
    0.3966    0.8268    0.8661 C   0  0  0  0  0  0  0  0  0  0  0  0
   -0.5013    1.9485    1.3102 C   0  0  0  0  0  0  0  0  0  0  0  0
   -0.9331    2.0745    2.5680 C   0  0  0  0  0  0  0  0  0  0  0  0
   -0.5438    1.1056    3.5992 C   0  0  0  0  0  0  0  0  0  0  0  0
    0.2660    0.0828    3.2549 C   0  0  0  0  0  0  0  0  0  0  0  0
    0.7564   -0.0698    1.8438 C   0  0  0  0  0  0  0  0  0  0  0  0
    2.0444   -5.7400   -2.5805 C   0  0  0  0  0  0  0  0  0  0  0  0
    3.5264   -4.5057   -4.0866 C   0  0  0  0  0  0  0  0  0  0  0  0
   -1.5154    2.5080    5.4101 C   0  0  0  0  0  0  0  0  0  0  0  0
   -1.0262    0.1248    5.8572 C   0  0  0  0  0  0  0  0  0  0  0  0
  1  2  1  0  0  0  0
  1 10  1  0  0  0  0
  1 16  1  0  0  0  0
  2  4  2  0  0  0  0
  2  9  1  0  0  0  0
  4  6  1  0  0  0  0
  6  7  2  0  0  0  0
  7  8  1  0  0  0  0
  8  9  2  0  0  0  0
 10 11  2  0  0  0  0
 10 15  1  0  0  0  0
 11 12  1  0  0  0  0
 12 13  2  0  0  0  0
 13  3  1  0  0  0  0
 13 14  1  0  0  0  0
 14 15  2  0  0  0  0
 16 17  2  0  0  0  0
 16 21  1  0  0  0  0
 17 18  1  0  0  0  0
 18 19  2  0  0  0  0
 19  5  1  0  0  0  0
 19 20  1  0  0  0  0
 20 21  2  0  0  0  0
 22  3  1  0  0  0  0
 23  3  1  0  0  0  0
 24  5  1  0  0  0  0
 25  5  1  0  0  0  0
M  END
>  <CHROM.1>
10.80649019,-171.19545557,23.38723349,20.93700013,-19.82389263,0.83651869
0.08881321,-0.24725116,-0.06655113,1.21608867,-0.54995277

>  <Name>
1q8n_lig

>  <RI>
0

>  <Rbt.Current_Directory>
/home/itssahil/PROJECTS/Mol_Feturizer/New_Systems/rnas/1q8n

>  <Rbt.Executable>
rbdock ($Id: //depot/dev/client3/rdock/2013.1/src/exe/rbdock.cxx#4 $)

>  <Rbt.Library>
libRbt.so (2013.1, Build901 2013/11/27)

>  <Rbt.Parameter_File>
/export/apps/rDock/src/rDock_2013.1_src/data/scripts/dock_solv.prm

>  <Rbt.Receptor>
prm/blind_docking_100.prm

>  <SCORE>
-49.8525

>  <SCORE.INTER>
-51.3977

>  <SCORE.INTER.CONST>
1

>  <SCORE.INTER.POLAR>
0

>  <SCORE.INTER.ROT>
5

>  <SCORE.INTER.SOLV>
9.69085

>  <SCORE.INTER.VDW>
-44.4287

>  <SCORE.INTER.norm>
-2.05591

>  <SCORE.INTRA>
1.5452

>  <SCORE.INTRA.DIHEDRAL>
3.10484

>  <SCORE.INTRA.DIHEDRAL.0>
2.1627

>  <SCORE.INTRA.POLAR>
0

>  <SCORE.INTRA.POLAR.0>
0

>  <SCORE.INTRA.REPUL>
0

>  <SCORE.INTRA.REPUL.0>
0

>  <SCORE.INTRA.SOLV>
0.0642362

>  <SCORE.INTRA.SOLV.lig_0>
-5.95779

>  <SCORE.INTRA.VDW>
-0.0393388

>  <SCORE.INTRA.VDW.0>
3.81702

>  <SCORE.INTRA.norm>
0.061808

>  <SCORE.RESTR>
0

>  <SCORE.RESTR.CAVITY>
0

>  <SCORE.RESTR.norm>
0

>  <SCORE.SYSTEM>
0

>  <SCORE.SYSTEM.CONST>
0

>  <SCORE.SYSTEM.DIHEDRAL>
0

>  <SCORE.SYSTEM.SOLV>
0

>  <SCORE.SYSTEM.norm>
0

>  <SCORE.heavy>
25

>  <SCORE.norm>
-1.9941

>  <RMSD>
1.728

$$$$
1q8n_lig
 OpenBabel11021811403D
libRbt.so/2013.1/901 2013/11/27
 25 27  0  0  0  0  0  0  0  0999 V2000
    0.8445    0.5900   -0.8119 C   0  0  0  0  0  0  0  0  0  0  0  0
    0.7934    1.9132   -1.7667 C   0  0  0  0  0  0  0  0  0  0  0  0
    2.7266   -4.5250   -3.2028 N   0  0  0  0  0  0  0  0  0  0  0  0
    0.8228    3.1807   -1.2898 C   0  0  0  0  0  0  0  0  0  0  0  0
   -0.9406    0.9888    4.8949 N   0  0  0  0  0  0  0  0  0  0  0  0
    0.7686    4.3550   -2.1910 C   0  0  0  0  0  0  0  0  0  0  0  0
    0.6889    4.1714   -3.5289 C   0  0  0  0  0  0  0  0  0  0  0  0
    0.6632    2.8282   -4.0590 C   0  0  0  0  0  0  0  0  0  0  0  0
    0.7107    1.7776   -3.2360 C   0  0  0  0  0  0  0  0  0  0  0  0
    1.3596   -0.8142   -1.4623 C   0  0  0  0  0  0  0  0  0  0  0  0
    1.1533   -1.9919   -0.8371 C   0  0  0  0  0  0  0  0  0  0  0  0
    1.6166   -3.2834   -1.4160 C   0  0  0  0  0  0  0  0  0  0  0  0
    2.2666   -3.3039   -2.6103 C   0  0  0  0  0  0  0  0  0  0  0  0
    2.4975   -2.0243   -3.3069 C   0  0  0  0  0  0  0  0  0  0  0  0
    2.0754   -0.8706   -2.7706 C   0  0  0  0  0  0  0  0  0  0  0  0
    0.3885    0.6456    0.7811 C   0  0  0  0  0  0  0  0  0  0  0  0
   -0.3706    1.8355    1.3002 C   0  0  0  0  0  0  0  0  0  0  0  0
   -0.7752    1.9378    2.5691 C   0  0  0  0  0  0  0  0  0  0  0  0
   -0.4923    0.8732    3.5388 C   0  0  0  0  0  0  0  0  0  0  0  0
    0.1915   -0.2142    3.1261 C   0  0  0  0  0  0  0  0  0  0  0  0
    0.6501   -0.3410    1.7018 C   0  0  0  0  0  0  0  0  0  0  0  0
    3.7769   -4.5542   -4.1747 C   0  0  0  0  0  0  0  0  0  0  0  0
    2.1358   -5.7726   -2.8292 C   0  0  0  0  0  0  0  0  0  0  0  0
   -0.9680   -0.1627    5.7502 C   0  0  0  0  0  0  0  0  0  0  0  0
   -1.3688    2.2581    5.4379 C   0  0  0  0  0  0  0  0  0  0  0  0
  1  2  1  0  0  0  0
  1 10  1  0  0  0  0
  1 16  1  0  0  0  0
  2  4  2  0  0  0  0
  2  9  1  0  0  0  0
  4  6  1  0  0  0  0
  6  7  2  0  0  0  0
  7  8  1  0  0  0  0
  8  9  2  0  0  0  0
 10 11  2  0  0  0  0
 10 15  1  0  0  0  0
 11 12  1  0  0  0  0
 12 13  2  0  0  0  0
 13  3  1  0  0  0  0
 13 14  1  0  0  0  0
 14 15  2  0  0  0  0
 16 17  2  0  0  0  0
 16 21  1  0  0  0  0
 17 18  1  0  0  0  0
 18 19  2  0  0  0  0
 19  5  1  0  0  0  0
 19 20  1  0  0  0  0
 20 21  2  0  0  0  0
 22  3  1  0  0  0  0
 23  3  1  0  0  0  0
 24  5  1  0  0  0  0
 25  5  1  0  0  0  0
M  END
>  <CHROM.1>
-157.31979279,-165.19462402,13.74538865,-157.92973080,164.37018876,0.84974913
-0.07850333,-0.37421262,3.05251512,-1.21227609,2.46912044

>  <Name>
1q8n_lig

>  <RI>
0

>  <Rbt.Current_Directory>
/home/itssahil/PROJECTS/Mol_Feturizer/New_Systems/rnas/1q8n

>  <Rbt.Executable>
rbdock ($Id: //depot/dev/client3/rdock/2013.1/src/exe/rbdock.cxx#4 $)

>  <Rbt.Library>
libRbt.so (2013.1, Build901 2013/11/27)

>  <Rbt.Parameter_File>
/export/apps/rDock/src/rDock_2013.1_src/data/scripts/dock_solv.prm

>  <Rbt.Receptor>
prm/blind_docking_40.prm

>  <SCORE>
-48.1724

>  <SCORE.INTER>
-49.5116

>  <SCORE.INTER.CONST>
1

>  <SCORE.INTER.POLAR>
0

>  <SCORE.INTER.ROT>
5

>  <SCORE.INTER.SOLV>
9.08329

>  <SCORE.INTER.VDW>
-42.9688

>  <SCORE.INTER.norm>
-1.98046

>  <SCORE.INTRA>
1.33917

>  <SCORE.INTRA.DIHEDRAL>
2.73509

>  <SCORE.INTRA.DIHEDRAL.0>
2.1627

>  <SCORE.INTRA.POLAR>
0

>  <SCORE.INTRA.POLAR.0>
0

>  <SCORE.INTRA.REPUL>
0

>  <SCORE.INTRA.REPUL.0>
0

>  <SCORE.INTRA.SOLV>
0.0602466

>  <SCORE.INTRA.SOLV.lig_0>
-5.95779

>  <SCORE.INTRA.VDW>
-0.0584949

>  <SCORE.INTRA.VDW.0>
3.81702

>  <SCORE.INTRA.norm>
0.0535669

>  <SCORE.RESTR>
0

>  <SCORE.RESTR.CAVITY>
0

>  <SCORE.RESTR.norm>
0

>  <SCORE.SYSTEM>
0

>  <SCORE.SYSTEM.CONST>
0

>  <SCORE.SYSTEM.DIHEDRAL>
0

>  <SCORE.SYSTEM.SOLV>
0

>  <SCORE.SYSTEM.norm>
0

>  <SCORE.heavy>
25

>  <SCORE.norm>
-1.9269

>  <RMSD>
1.728

$$$$
1q8n_lig
 OpenBabel11021811403D
libRbt.so/2013.1/901 2013/11/27
 25 27  0  0  0  0  0  0  0  0999 V2000
    0.8788    0.6541   -0.7786 C   0  0  0  0  0  0  0  0  0  0  0  0
    0.9005    1.9916   -1.7147 C   0  0  0  0  0  0  0  0  0  0  0  0
   -0.8863    1.2153    4.8774 N   0  0  0  0  0  0  0  0  0  0  0  0
    1.0805    1.9617   -3.0569 C   0  0  0  0  0  0  0  0  0  0  0  0
    2.6226   -4.5926   -3.0904 N   0  0  0  0  0  0  0  0  0  0  0  0
    1.0993    3.2001   -3.8694 C   0  0  0  0  0  0  0  0  0  0  0  0
    0.9319    4.4002   -3.2681 C   0  0  0  0  0  0  0  0  0  0  0  0
    0.7317    4.4542   -1.8388 C   0  0  0  0  0  0  0  0  0  0  0  0
    0.7186    3.3309   -1.1169 C   0  0  0  0  0  0  0  0  0  0  0  0
    0.3967    0.8029    0.7724 C   0  0  0  0  0  0  0  0  0  0  0  0
    0.8014   -0.0709    1.7174 C   0  0  0  0  0  0  0  0  0  0  0  0
    0.3714    0.0494    3.1381 C   0  0  0  0  0  0  0  0  0  0  0  0
   -0.4510    1.0627    3.5207 C   0  0  0  0  0  0  0  0  0  0  0  0
   -0.9001    2.0272    2.4988 C   0  0  0  0  0  0  0  0  0  0  0  0
   -0.5049    1.9030    1.2241 C   0  0  0  0  0  0  0  0  0  0  0  0
    1.3318   -0.8288   -1.3655 C   0  0  0  0  0  0  0  0  0  0  0  0
    1.9130   -0.9397   -2.7480 C   0  0  0  0  0  0  0  0  0  0  0  0
    2.3064   -2.1020   -3.2760 C   0  0  0  0  0  0  0  0  0  0  0  0
    2.1873   -3.3530   -2.5181 C   0  0  0  0  0  0  0  0  0  0  0  0
    1.6664   -3.3101   -1.2742 C   0  0  0  0  0  0  0  0  0  0  0  0
    1.2222   -2.0092   -0.6697 C   0  0  0  0  0  0  0  0  0  0  0  0
   -1.4270    2.4446    5.3724 C   0  0  0  0  0  0  0  0  0  0  0  0
   -0.7904    0.1191    5.7909 C   0  0  0  0  0  0  0  0  0  0  0  0
    2.0517   -5.8337   -2.6522 C   0  0  0  0  0  0  0  0  0  0  0  0
    3.6358   -4.6284   -4.1207 C   0  0  0  0  0  0  0  0  0  0  0  0
  1  2  1  0  0  0  0
  1 10  1  0  0  0  0
  1 16  1  0  0  0  0
  2  4  2  0  0  0  0
  2  9  1  0  0  0  0
  4  6  1  0  0  0  0
  6  7  2  0  0  0  0
  7  8  1  0  0  0  0
  8  9  2  0  0  0  0
 10 11  2  0  0  0  0
 10 15  1  0  0  0  0
 11 12  1  0  0  0  0
 12 13  2  0  0  0  0
 13  3  1  0  0  0  0
 13 14  1  0  0  0  0
 14 15  2  0  0  0  0
 16 17  2  0  0  0  0
 16 21  1  0  0  0  0
 17 18  1  0  0  0  0
 18 19  2  0  0  0  0
 19  5  1  0  0  0  0
 19 20  1  0  0  0  0
 20 21  2  0  0  0  0
 22  3  1  0  0  0  0
 23  3  1  0  0  0  0
 24  5  1  0  0  0  0
 25  5  1  0  0  0  0
M  END
>  <CHROM.1>
-169.47686215,-154.99211588,6.40500571,162.20848667,-154.49016104,0.87532524
0.01947777,-0.29661231,-3.07737662,-1.22462044,2.55630680

>  <Name>
1q8n_lig

>  <RI>
0

>  <Rbt.Current_Directory>
/home/itssahil/PROJECTS/Mol_Feturizer/New_Systems/rnas/1q8n

>  <Rbt.Executable>
rbdock ($Id: //depot/dev/client3/rdock/2013.1/src/exe/rbdock.cxx#4 $)

>  <Rbt.Library>
libRbt.so (2013.1, Build901 2013/11/27)

>  <Rbt.Parameter_File>
/export/apps/rDock/src/rDock_2013.1_src/data/scripts/dock_solv.prm

>  <Rbt.Receptor>
prm/blind_docking_80.prm

>  <SCORE>
-50.4063

>  <SCORE.INTER>
-51.9979

>  <SCORE.INTER.CONST>
1

>  <SCORE.INTER.POLAR>
0

>  <SCORE.INTER.ROT>
5

>  <SCORE.INTER.SOLV>
9.63355

>  <SCORE.INTER.VDW>
-44.8098

>  <SCORE.INTER.norm>
-2.07992

>  <SCORE.INTRA>
1.59165

>  <SCORE.INTRA.DIHEDRAL>
3.56488

>  <SCORE.INTRA.DIHEDRAL.0>
2.1627

>  <SCORE.INTRA.POLAR>
0

>  <SCORE.INTRA.POLAR.0>
0

>  <SCORE.INTRA.REPUL>
0

>  <SCORE.INTRA.REPUL.0>
0

>  <SCORE.INTRA.SOLV>
0.0638907

>  <SCORE.INTRA.SOLV.lig_0>
-5.95779

>  <SCORE.INTRA.VDW>
-0.222735

>  <SCORE.INTRA.VDW.0>
3.81702

>  <SCORE.INTRA.norm>
0.0636661

>  <SCORE.RESTR>
0

>  <SCORE.RESTR.CAVITY>
0

>  <SCORE.RESTR.norm>
0

>  <SCORE.SYSTEM>
0

>  <SCORE.SYSTEM.CONST>
0

>  <SCORE.SYSTEM.DIHEDRAL>
0

>  <SCORE.SYSTEM.SOLV>
0

>  <SCORE.SYSTEM.norm>
0

>  <SCORE.heavy>
25

>  <SCORE.norm>
-2.01625

>  <RMSD>
1.729

$$$$
1q8n_lig
 OpenBabel11021811403D
libRbt.so/2013.1/901 2013/11/27
 25 27  0  0  0  0  0  0  0  0999 V2000
    0.8062    0.7332   -0.6918 C   0  0  0  0  0  0  0  0  0  0  0  0
    0.8326    2.0768   -1.6189 C   0  0  0  0  0  0  0  0  0  0  0  0
   -0.9905    1.2176    4.9615 N   0  0  0  0  0  0  0  0  0  0  0  0
    0.7548    3.3327   -1.1174 C   0  0  0  0  0  0  0  0  0  0  0  0
    2.5723   -4.4957   -3.0267 N   0  0  0  0  0  0  0  0  0  0  0  0
    0.7765    4.5260   -1.9946 C   0  0  0  0  0  0  0  0  0  0  0  0
    0.8778    4.3723   -3.3348 C   0  0  0  0  0  0  0  0  0  0  0  0
    0.9688    3.0421   -3.8900 C   0  0  0  0  0  0  0  0  0  0  0  0
    0.9463    1.9741   -3.0888 C   0  0  0  0  0  0  0  0  0  0  0  0
    0.3123    0.8711    0.8565 C   0  0  0  0  0  0  0  0  0  0  0  0
   -0.4877    1.8846    1.2478 C   0  0  0  0  0  0  0  0  0  0  0  0
   -0.9483    2.0262    2.6570 C   0  0  0  0  0  0  0  0  0  0  0  0
   -0.5678    1.1189    3.5957 C   0  0  0  0  0  0  0  0  0  0  0  0
    0.3050    0.0039    3.1823 C   0  0  0  0  0  0  0  0  0  0  0  0
    0.7119   -0.1075    1.9100 C   0  0  0  0  0  0  0  0  0  0  0  0
    1.2660   -0.7451   -1.2849 C   0  0  0  0  0  0  0  0  0  0  0  0
    1.8377   -0.8490   -2.6719 C   0  0  0  0  0  0  0  0  0  0  0  0
    2.2359   -2.0072   -3.2051 C   0  0  0  0  0  0  0  0  0  0  0  0
    2.1320   -3.2606   -2.4488 C   0  0  0  0  0  0  0  0  0  0  0  0
    1.6199   -3.2239   -1.2010 C   0  0  0  0  0  0  0  0  0  0  0  0
    1.1705   -1.9276   -0.5907 C   0  0  0  0  0  0  0  0  0  0  0  0
   -0.9369    0.1048    5.8600 C   0  0  0  0  0  0  0  0  0  0  0  0
   -1.4863    2.4578    5.4727 C   0  0  0  0  0  0  0  0  0  0  0  0
    3.5398   -4.4965   -4.0861 C   0  0  0  0  0  0  0  0  0  0  0  0
    2.0640   -5.7658   -2.5598 C   0  0  0  0  0  0  0  0  0  0  0  0
  1  2  1  0  0  0  0
  1 10  1  0  0  0  0
  1 16  1  0  0  0  0
  2  4  2  0  0  0  0
  2  9  1  0  0  0  0
  4  6  1  0  0  0  0
  6  7  2  0  0  0  0
  7  8  1  0  0  0  0
  8  9  2  0  0  0  0
 10 11  2  0  0  0  0
 10 15  1  0  0  0  0
 11 12  1  0  0  0  0
 12 13  2  0  0  0  0
 13  3  1  0  0  0  0
 13 14  1  0  0  0  0
 14 15  2  0  0  0  0
 16 17  2  0  0  0  0
 16 21  1  0  0  0  0
 17 18  1  0  0  0  0
 18 19  2  0  0  0  0
 19  5  1  0  0  0  0
 19 20  1  0  0  0  0
 20 21  2  0  0  0  0
 22  3  1  0  0  0  0
 23  3  1  0  0  0  0
 24  5  1  0  0  0  0
 25  5  1  0  0  0  0
M  END
>  <CHROM.1>
15.02475836,23.60091664,5.45019319,161.42131187,23.18493783,0.81222966,0.05583958
-0.24131757,-3.12088021,-1.22166417,2.54723207

>  <Name>
1q8n_lig

>  <RI>
0

>  <Rbt.Current_Directory>
/home/itssahil/PROJECTS/Mol_Feturizer/New_Systems/rnas/1q8n

>  <Rbt.Executable>
rbdock ($Id: //depot/dev/client3/rdock/2013.1/src/exe/rbdock.cxx#4 $)

>  <Rbt.Library>
libRbt.so (2013.1, Build901 2013/11/27)

>  <Rbt.Parameter_File>
/export/apps/rDock/src/rDock_2013.1_src/data/scripts/dock_solv.prm

>  <Rbt.Receptor>
prm/blind_docking_60.prm

>  <SCORE>
-48.9072

>  <SCORE.INTER>
-50.4109

>  <SCORE.INTER.CONST>
1

>  <SCORE.INTER.POLAR>
0

>  <SCORE.INTER.ROT>
5

>  <SCORE.INTER.SOLV>
9.45365

>  <SCORE.INTER.VDW>
-43.6918

>  <SCORE.INTER.norm>
-2.01644

>  <SCORE.INTRA>
1.50372

>  <SCORE.INTRA.DIHEDRAL>
3.27739

>  <SCORE.INTRA.DIHEDRAL.0>
2.1627

>  <SCORE.INTRA.POLAR>
0

>  <SCORE.INTRA.POLAR.0>
0

>  <SCORE.INTRA.REPUL>
0

>  <SCORE.INTRA.REPUL.0>
0

>  <SCORE.INTRA.SOLV>
0.0630191

>  <SCORE.INTRA.SOLV.lig_0>
-5.95779

>  <SCORE.INTRA.VDW>
-0.166486

>  <SCORE.INTRA.VDW.0>
3.81702

>  <SCORE.INTRA.norm>
0.0601487

>  <SCORE.RESTR>
0

>  <SCORE.RESTR.CAVITY>
0

>  <SCORE.RESTR.norm>
0

>  <SCORE.SYSTEM>
0

>  <SCORE.SYSTEM.CONST>
0

>  <SCORE.SYSTEM.DIHEDRAL>
0

>  <SCORE.SYSTEM.SOLV>
0

>  <SCORE.SYSTEM.norm>
0

>  <SCORE.heavy>
25

>  <SCORE.norm>
-1.95629

>  <RMSD>
1.731

$$$$
1q8n_lig
 OpenBabel11021811413D
libRbt.so/2013.1/901 2013/11/27
 25 27  0  0  0  0  0  0  0  0999 V2000
    0.8739    0.7013   -0.7709 C   0  0  0  0  0  0  0  0  0  0  0  0
    0.8995    2.0362   -1.7105 C   0  0  0  0  0  0  0  0  0  0  0  0
   -0.9039    1.2407    4.8833 N   0  0  0  0  0  0  0  0  0  0  0  0
    1.0880    2.0029   -3.0515 C   0  0  0  0  0  0  0  0  0  0  0  0
    2.6225   -4.5520   -3.0639 N   0  0  0  0  0  0  0  0  0  0  0  0
    1.1102    3.2390   -3.8672 C   0  0  0  0  0  0  0  0  0  0  0  0
    0.9373    4.4406   -3.2703 C   0  0  0  0  0  0  0  0  0  0  0  0
    0.7281    4.4982   -1.8424 C   0  0  0  0  0  0  0  0  0  0  0  0
    0.7121    3.3768   -1.1176 C   0  0  0  0  0  0  0  0  0  0  0  0
    0.3852    0.8542    0.7776 C   0  0  0  0  0  0  0  0  0  0  0  0
   -0.3987    1.8816    1.1654 C   0  0  0  0  0  0  0  0  0  0  0  0
   -0.8543    2.0371    2.5747 C   0  0  0  0  0  0  0  0  0  0  0  0
   -0.4856    1.1288    3.5172 C   0  0  0  0  0  0  0  0  0  0  0  0
    0.3697   -0.0012    3.1077 C   0  0  0  0  0  0  0  0  0  0  0  0
    0.7723   -0.1250    1.8352 C   0  0  0  0  0  0  0  0  0  0  0  0
    1.3294   -0.7832   -1.3518 C   0  0  0  0  0  0  0  0  0  0  0  0
    1.8890   -0.9020   -2.7426 C   0  0  0  0  0  0  0  0  0  0  0  0
    2.2833   -2.0658   -3.2665 C   0  0  0  0  0  0  0  0  0  0  0  0
    2.1866   -3.3109   -2.4957 C   0  0  0  0  0  0  0  0  0  0  0  0
    1.6854   -3.2608   -1.2439 C   0  0  0  0  0  0  0  0  0  0  0  0
    1.2405   -1.9582   -0.6439 C   0  0  0  0  0  0  0  0  0  0  0  0
   -1.4983    2.4337    5.4049 C   0  0  0  0  0  0  0  0  0  0  0  0
   -0.7355    0.1389    5.7793 C   0  0  0  0  0  0  0  0  0  0  0  0
    3.6493   -4.5700   -4.0658 C   0  0  0  0  0  0  0  0  0  0  0  0
    2.0505   -5.8114   -2.6441 C   0  0  0  0  0  0  0  0  0  0  0  0
  1  2  1  0  0  0  0
  1 10  1  0  0  0  0
  1 16  1  0  0  0  0
  2  4  2  0  0  0  0
  2  9  1  0  0  0  0
  4  6  1  0  0  0  0
  6  7  2  0  0  0  0
  7  8  1  0  0  0  0
  8  9  2  0  0  0  0
 10 11  2  0  0  0  0
 10 15  1  0  0  0  0
 11 12  1  0  0  0  0
 12 13  2  0  0  0  0
 13  3  1  0  0  0  0
 13 14  1  0  0  0  0
 14 15  2  0  0  0  0
 16 17  2  0  0  0  0
 16 21  1  0  0  0  0
 17 18  1  0  0  0  0
 18 19  2  0  0  0  0
 19  5  1  0  0  0  0
 19 20  1  0  0  0  0
 20 21  2  0  0  0  0
 22  3  1  0  0  0  0
 23  3  1  0  0  0  0
 24  5  1  0  0  0  0
 25  5  1  0  0  0  0
M  END
>  <CHROM.1>
-169.61661468,22.79569349,5.09863042,-12.93470633,27.58886778,0.87729525
0.04786354,-0.28264369,-3.08243500,-1.22345979,2.55546792

>  <Name>
1q8n_lig

>  <RI>
0

>  <Rbt.Current_Directory>
/home/itssahil/PROJECTS/Mol_Feturizer/New_Systems/rnas/1q8n

>  <Rbt.Executable>
rbdock ($Id: //depot/dev/client3/rdock/2013.1/src/exe/rbdock.cxx#4 $)

>  <Rbt.Library>
libRbt.so (2013.1, Build901 2013/11/27)

>  <Rbt.Parameter_File>
/export/apps/rDock/src/rDock_2013.1_src/data/scripts/dock_solv.prm

>  <Rbt.Receptor>
prm/pocket_docking_8.prm

>  <SCORE>
-50.054

>  <SCORE.INTER>
-51.7472

>  <SCORE.INTER.CONST>
1

>  <SCORE.INTER.POLAR>
0

>  <SCORE.INTER.ROT>
5

>  <SCORE.INTER.SOLV>
9.65209

>  <SCORE.INTER.VDW>
-44.6488

>  <SCORE.INTER.norm>
-2.06989

>  <SCORE.INTRA>
1.6932

>  <SCORE.INTRA.DIHEDRAL>
3.38085

>  <SCORE.INTRA.DIHEDRAL.0>
2.1627

>  <SCORE.INTRA.POLAR>
0

>  <SCORE.INTRA.POLAR.0>
0

>  <SCORE.INTRA.REPUL>
0

>  <SCORE.INTRA.REPUL.0>
0

>  <SCORE.INTRA.SOLV>
0.0660092

>  <SCORE.INTRA.SOLV.lig_0>
-5.95779

>  <SCORE.INTRA.VDW>
-0.0302338

>  <SCORE.INTRA.VDW.0>
3.81702

>  <SCORE.INTRA.norm>
0.0677279

>  <SCORE.RESTR>
0

>  <SCORE.RESTR.CAVITY>
0

>  <SCORE.RESTR.norm>
0

>  <SCORE.SYSTEM>
0

>  <SCORE.SYSTEM.CONST>
0

>  <SCORE.SYSTEM.DIHEDRAL>
0

>  <SCORE.SYSTEM.SOLV>
0

>  <SCORE.SYSTEM.norm>
0

>  <SCORE.heavy>
25

>  <SCORE.norm>
-2.00216

>  <RMSD>
1.732

$$$$
1q8n_lig
 OpenBabel11021811413D
libRbt.so/2013.1/901 2013/11/27
 25 27  0  0  0  0  0  0  0  0999 V2000
    0.9241    0.6854   -0.7811 C   0  0  0  0  0  0  0  0  0  0  0  0
    0.9070    2.0054   -1.7417 C   0  0  0  0  0  0  0  0  0  0  0  0
    2.7088   -4.4791   -3.1401 N   0  0  0  0  0  0  0  0  0  0  0  0
    1.0263    1.9503   -3.0899 C   0  0  0  0  0  0  0  0  0  0  0  0
   -0.9117    1.1238    4.9066 N   0  0  0  0  0  0  0  0  0  0  0  0
    1.0117    3.1735   -3.9251 C   0  0  0  0  0  0  0  0  0  0  0  0
    0.8748    4.3850   -3.3391 C   0  0  0  0  0  0  0  0  0  0  0  0
    0.7393    4.4659   -1.9035 C   0  0  0  0  0  0  0  0  0  0  0  0
    0.7559    3.3560   -1.1612 C   0  0  0  0  0  0  0  0  0  0  0  0
    1.4125   -0.7324   -1.4228 C   0  0  0  0  0  0  0  0  0  0  0  0
    1.1946   -1.9009   -0.7845 C   0  0  0  0  0  0  0  0  0  0  0  0
    1.6335   -3.2045   -1.3553 C   0  0  0  0  0  0  0  0  0  0  0  0
    2.2722   -3.2459   -2.5552 C   0  0  0  0  0  0  0  0  0  0  0  0
    2.5155   -1.9764   -3.2659 C   0  0  0  0  0  0  0  0  0  0  0  0
    2.1154   -0.8116   -2.7369 C   0  0  0  0  0  0  0  0  0  0  0  0
    0.4603    0.7575    0.8089 C   0  0  0  0  0  0  0  0  0  0  0  0
   -0.4368    1.8705    1.2761 C   0  0  0  0  0  0  0  0  0  0  0  0
   -0.8543    1.9806    2.5402 C   0  0  0  0  0  0  0  0  0  0  0  0
   -0.4490    1.0019    3.5559 C   0  0  0  0  0  0  0  0  0  0  0  0
    0.3608   -0.0136    3.1906 C   0  0  0  0  0  0  0  0  0  0  0  0
    0.8352   -0.1485    1.7723 C   0  0  0  0  0  0  0  0  0  0  0  0
    3.7155   -4.5283   -4.1563 C   0  0  0  0  0  0  0  0  0  0  0  0
    2.1379   -5.7190   -2.7134 C   0  0  0  0  0  0  0  0  0  0  0  0
   -0.8369    0.0057    5.8025 C   0  0  0  0  0  0  0  0  0  0  0  0
   -1.4569    2.3669    5.4036 C   0  0  0  0  0  0  0  0  0  0  0  0
  1  2  1  0  0  0  0
  1 10  1  0  0  0  0
  1 16  1  0  0  0  0
  2  4  2  0  0  0  0
  2  9  1  0  0  0  0
  4  6  1  0  0  0  0
  6  7  2  0  0  0  0
  7  8  1  0  0  0  0
  8  9  2  0  0  0  0
 10 11  2  0  0  0  0
 10 15  1  0  0  0  0
 11 12  1  0  0  0  0
 12 13  2  0  0  0  0
 13  3  1  0  0  0  0
 13 14  1  0  0  0  0
 14 15  2  0  0  0  0
 16 17  2  0  0  0  0
 16 21  1  0  0  0  0
 17 18  1  0  0  0  0
 18 19  2  0  0  0  0
 19  5  1  0  0  0  0
 19 20  1  0  0  0  0
 20 21  2  0  0  0  0
 22  3  1  0  0  0  0
 23  3  1  0  0  0  0
 24  5  1  0  0  0  0
 25  5  1  0  0  0  0
M  END
>  <CHROM.1>
13.08630282,-166.17890618,22.17224730,-160.25885122,162.69299676,0.90556419
0.03587936,-0.31142489,0.00029286,1.21376066,-0.60850039

>  <Name>
1q8n_lig

>  <RI>
0

>  <Rbt.Current_Directory>
/home/itssahil/PROJECTS/Mol_Feturizer/New_Systems/rnas/1q8n

>  <Rbt.Executable>
rbdock ($Id: //depot/dev/client3/rdock/2013.1/src/exe/rbdock.cxx#4 $)

>  <Rbt.Library>
libRbt.so (2013.1, Build901 2013/11/27)

>  <Rbt.Parameter_File>
/export/apps/rDock/src/rDock_2013.1_src/data/scripts/dock_solv.prm

>  <Rbt.Receptor>
prm/pocket_docking_6.prm

>  <SCORE>
-49.5698

>  <SCORE.INTER>
-50.9564

>  <SCORE.INTER.CONST>
1

>  <SCORE.INTER.POLAR>
0

>  <SCORE.INTER.ROT>
5

>  <SCORE.INTER.SOLV>
9.57891

>  <SCORE.INTER.VDW>
-44.0972

>  <SCORE.INTER.norm>
-2.03825

>  <SCORE.INTRA>
1.38658

>  <SCORE.INTRA.DIHEDRAL>
2.59149

>  <SCORE.INTRA.DIHEDRAL.0>
2.1627

>  <SCORE.INTRA.POLAR>
0

>  <SCORE.INTRA.POLAR.0>
0

>  <SCORE.INTRA.REPUL>
0

>  <SCORE.INTRA.REPUL.0>
0

>  <SCORE.INTRA.SOLV>
0.0615899

>  <SCORE.INTRA.SOLV.lig_0>
-5.95779

>  <SCORE.INTRA.VDW>
0.0600435

>  <SCORE.INTRA.VDW.0>
3.81702

>  <SCORE.INTRA.norm>
0.0554633

>  <SCORE.RESTR>
0

>  <SCORE.RESTR.CAVITY>
0

>  <SCORE.RESTR.norm>
0

>  <SCORE.SYSTEM>
0

>  <SCORE.SYSTEM.CONST>
0

>  <SCORE.SYSTEM.DIHEDRAL>
0

>  <SCORE.SYSTEM.SOLV>
0

>  <SCORE.SYSTEM.norm>
0

>  <SCORE.heavy>
25

>  <SCORE.norm>
-1.98279

>  <RMSD>
1.740

$$$$
1q8n_lig
 OpenBabel11021811403D
libRbt.so/2013.1/901 2013/11/27
 25 27  0  0  0  0  0  0  0  0999 V2000
    0.8370    0.7356   -0.6654 C   0  0  0  0  0  0  0  0  0  0  0  0
    0.8687    2.0858   -1.5826 C   0  0  0  0  0  0  0  0  0  0  0  0
   -0.9901    1.2189    4.9782 N   0  0  0  0  0  0  0  0  0  0  0  0
    0.7213    3.3348   -1.0796 C   0  0  0  0  0  0  0  0  0  0  0  0
    2.6086   -4.4787   -3.0288 N   0  0  0  0  0  0  0  0  0  0  0  0
    0.7505    4.5343   -1.9481 C   0  0  0  0  0  0  0  0  0  0  0  0
    0.9300    4.3935   -3.2815 C   0  0  0  0  0  0  0  0  0  0  0  0
    1.0959    3.0710   -3.8378 C   0  0  0  0  0  0  0  0  0  0  0  0
    1.0658    1.9973   -3.0446 C   0  0  0  0  0  0  0  0  0  0  0  0
    0.3379    0.8629    0.8822 C   0  0  0  0  0  0  0  0  0  0  0  0
    0.7231   -0.0304    1.8170 C   0  0  0  0  0  0  0  0  0  0  0  0
    0.2773    0.0703    3.2344 C   0  0  0  0  0  0  0  0  0  0  0  0
   -0.5401    1.0848    3.6243 C   0  0  0  0  0  0  0  0  0  0  0  0
   -0.9679    2.0705    2.6136 C   0  0  0  0  0  0  0  0  0  0  0  0
   -0.5587    1.9639    1.3417 C   0  0  0  0  0  0  0  0  0  0  0  0
    1.2967   -0.7392   -1.2675 C   0  0  0  0  0  0  0  0  0  0  0  0
    1.9022   -0.8298   -2.6411 C   0  0  0  0  0  0  0  0  0  0  0  0
    2.3020   -1.9846   -3.1804 C   0  0  0  0  0  0  0  0  0  0  0  0
    2.1663   -3.2472   -2.4447 C   0  0  0  0  0  0  0  0  0  0  0  0
    1.6234   -3.2225   -1.2098 C   0  0  0  0  0  0  0  0  0  0  0  0
    1.1718   -1.9301   -0.5927 C   0  0  0  0  0  0  0  0  0  0  0  0
   -0.9477    0.1320    5.9084 C   0  0  0  0  0  0  0  0  0  0  0  0
   -1.5030    2.4697    5.4448 C   0  0  0  0  0  0  0  0  0  0  0  0
    3.6137   -4.4760   -4.0526 C   0  0  0  0  0  0  0  0  0  0  0  0
    2.0647   -5.7487   -2.6036 C   0  0  0  0  0  0  0  0  0  0  0  0
  1  2  1  0  0  0  0
  1 10  1  0  0  0  0
  1 16  1  0  0  0  0
  2  4  2  0  0  0  0
  2  9  1  0  0  0  0
  4  6  1  0  0  0  0
  6  7  2  0  0  0  0
  7  8  1  0  0  0  0
  8  9  2  0  0  0  0
 10 11  2  0  0  0  0
 10 15  1  0  0  0  0
 11 12  1  0  0  0  0
 12 13  2  0  0  0  0
 13  3  1  0  0  0  0
 13 14  1  0  0  0  0
 14 15  2  0  0  0  0
 16 17  2  0  0  0  0
 16 21  1  0  0  0  0
 17 18  1  0  0  0  0
 18 19  2  0  0  0  0
 19  5  1  0  0  0  0
 19 20  1  0  0  0  0
 20 21  2  0  0  0  0
 22  3  1  0  0  0  0
 23  3  1  0  0  0  0
 24  5  1  0  0  0  0
 25  5  1  0  0  0  0
M  END
>  <CHROM.1>
11.46765783,-155.56867557,6.84455097,-18.46088249,23.91128664,0.83329280
0.07510921,-0.22376118,-3.09735388,-1.21567124,2.56895271

>  <Name>
1q8n_lig

>  <RI>
0

>  <Rbt.Current_Directory>
/home/itssahil/PROJECTS/Mol_Feturizer/New_Systems/rnas/1q8n

>  <Rbt.Executable>
rbdock ($Id: //depot/dev/client3/rdock/2013.1/src/exe/rbdock.cxx#4 $)

>  <Rbt.Library>
libRbt.so (2013.1, Build901 2013/11/27)

>  <Rbt.Parameter_File>
/export/apps/rDock/src/rDock_2013.1_src/data/scripts/dock_solv.prm

>  <Rbt.Receptor>
prm/blind_docking_100.prm

>  <SCORE>
-49.2703

>  <SCORE.INTER>
-50.8152

>  <SCORE.INTER.CONST>
1

>  <SCORE.INTER.POLAR>
0

>  <SCORE.INTER.ROT>
5

>  <SCORE.INTER.SOLV>
9.57023

>  <SCORE.INTER.VDW>
-44.0002

>  <SCORE.INTER.norm>
-2.03261

>  <SCORE.INTRA>
1.54488

>  <SCORE.INTRA.DIHEDRAL>
3.38206

>  <SCORE.INTRA.DIHEDRAL.0>
2.1627

>  <SCORE.INTRA.POLAR>
0

>  <SCORE.INTRA.POLAR.0>
0

>  <SCORE.INTRA.REPUL>
0

>  <SCORE.INTRA.REPUL.0>
0

>  <SCORE.INTRA.SOLV>
0.0638837

>  <SCORE.INTRA.SOLV.lig_0>
-5.95779

>  <SCORE.INTRA.VDW>
-0.178093

>  <SCORE.INTRA.VDW.0>
3.81702

>  <SCORE.INTRA.norm>
0.0617951

>  <SCORE.RESTR>
0

>  <SCORE.RESTR.CAVITY>
0

>  <SCORE.RESTR.norm>
0

>  <SCORE.SYSTEM>
0

>  <SCORE.SYSTEM.CONST>
0

>  <SCORE.SYSTEM.DIHEDRAL>
0

>  <SCORE.SYSTEM.SOLV>
0

>  <SCORE.SYSTEM.norm>
0

>  <SCORE.heavy>
25

>  <SCORE.norm>
-1.97081

>  <RMSD>
1.746

$$$$
1q8n_lig
 OpenBabel11021811403D
libRbt.so/2013.1/901 2013/11/27
 25 27  0  0  0  0  0  0  0  0999 V2000
    0.9086    0.6806   -0.7505 C   0  0  0  0  0  0  0  0  0  0  0  0
    0.9117    1.9998   -1.7123 C   0  0  0  0  0  0  0  0  0  0  0  0
    2.6690   -4.5016   -3.0889 N   0  0  0  0  0  0  0  0  0  0  0  0
    1.0877    1.9459   -3.0544 C   0  0  0  0  0  0  0  0  0  0  0  0
   -0.9757    1.1392    4.9198 N   0  0  0  0  0  0  0  0  0  0  0  0
    1.0895    3.1684   -3.8907 C   0  0  0  0  0  0  0  0  0  0  0  0
    0.9102    4.3780   -3.3122 C   0  0  0  0  0  0  0  0  0  0  0  0
    0.7140    4.4574   -1.8836 C   0  0  0  0  0  0  0  0  0  0  0  0
    0.7163    3.3482   -1.1400 C   0  0  0  0  0  0  0  0  0  0  0  0
    1.3905   -0.7420   -1.3865 C   0  0  0  0  0  0  0  0  0  0  0  0
    1.1907   -1.9044   -0.7314 C   0  0  0  0  0  0  0  0  0  0  0  0
    1.6239   -3.2123   -1.2968 C   0  0  0  0  0  0  0  0  0  0  0  0
    2.2386   -3.2639   -2.5087 C   0  0  0  0  0  0  0  0  0  0  0  0
    2.4620   -2.0012   -3.2378 C   0  0  0  0  0  0  0  0  0  0  0  0
    2.0673   -0.8325   -2.7135 C   0  0  0  0  0  0  0  0  0  0  0  0
    0.4311    0.7583    0.8353 C   0  0  0  0  0  0  0  0  0  0  0  0
   -0.4677    1.8743    1.2913 C   0  0  0  0  0  0  0  0  0  0  0  0
   -0.8960    1.9889    2.5514 C   0  0  0  0  0  0  0  0  0  0  0  0
   -0.5016    1.0124    3.5735 C   0  0  0  0  0  0  0  0  0  0  0  0
    0.3094   -0.0057    3.2182 C   0  0  0  0  0  0  0  0  0  0  0  0
    0.7959   -0.1456    1.8045 C   0  0  0  0  0  0  0  0  0  0  0  0
    3.6632   -4.5584   -4.1169 C   0  0  0  0  0  0  0  0  0  0  0  0
    2.1044   -5.7383   -2.6451 C   0  0  0  0  0  0  0  0  0  0  0  0
   -1.4846    2.3939    5.3943 C   0  0  0  0  0  0  0  0  0  0  0  0
   -0.9612    0.0157    5.8292 C   0  0  0  0  0  0  0  0  0  0  0  0
  1  2  1  0  0  0  0
  1 10  1  0  0  0  0
  1 16  1  0  0  0  0
  2  4  2  0  0  0  0
  2  9  1  0  0  0  0
  4  6  1  0  0  0  0
  6  7  2  0  0  0  0
  7  8  1  0  0  0  0
  8  9  2  0  0  0  0
 10 11  2  0  0  0  0
 10 15  1  0  0  0  0
 11 12  1  0  0  0  0
 12 13  2  0  0  0  0
 13  3  1  0  0  0  0
 13 14  1  0  0  0  0
 14 15  2  0  0  0  0
 16 17  2  0  0  0  0
 16 21  1  0  0  0  0
 17 18  1  0  0  0  0
 18 19  2  0  0  0  0
 19  5  1  0  0  0  0
 19 20  1  0  0  0  0
 20 21  2  0  0  0  0
 22  3  1  0  0  0  0
 23  3  1  0  0  0  0
 24  5  1  0  0  0  0
 25  5  1  0  0  0  0
M  END
>  <CHROM.1>
10.77864753,-168.08972054,22.57468317,-159.74625827,-19.12654203,0.87825817
0.03138787,-0.28085065,-0.03124371,1.21063960,-0.57975351

>  <Name>
1q8n_lig

>  <RI>
0

>  <Rbt.Current_Directory>
/home/itssahil/PROJECTS/Mol_Feturizer/New_Systems/rnas/1q8n

>  <Rbt.Executable>
rbdock ($Id: //depot/dev/client3/rdock/2013.1/src/exe/rbdock.cxx#4 $)

>  <Rbt.Library>
libRbt.so (2013.1, Build901 2013/11/27)

>  <Rbt.Parameter_File>
/export/apps/rDock/src/rDock_2013.1_src/data/scripts/dock_solv.prm

>  <Rbt.Receptor>
prm/pocket_docking_5.prm

>  <SCORE>
-49.7678

>  <SCORE.INTER>
-51.2358

>  <SCORE.INTER.CONST>
1

>  <SCORE.INTER.POLAR>
0

>  <SCORE.INTER.ROT>
5

>  <SCORE.INTER.SOLV>
9.59916

>  <SCORE.INTER.VDW>
-44.2902

>  <SCORE.INTER.norm>
-2.04943

>  <SCORE.INTRA>
1.46798

>  <SCORE.INTRA.DIHEDRAL>
2.90649

>  <SCORE.INTRA.DIHEDRAL.0>
2.1627

>  <SCORE.INTRA.POLAR>
0

>  <SCORE.INTRA.POLAR.0>
0

>  <SCORE.INTRA.REPUL>
0

>  <SCORE.INTRA.REPUL.0>
0

>  <SCORE.INTRA.SOLV>
0.0635422

>  <SCORE.INTRA.SOLV.lig_0>
-5.95779

>  <SCORE.INTRA.VDW>
-0.0170301

>  <SCORE.INTRA.VDW.0>
3.81702

>  <SCORE.INTRA.norm>
0.0587194

>  <SCORE.RESTR>
0

>  <SCORE.RESTR.CAVITY>
0

>  <SCORE.RESTR.norm>
0

>  <SCORE.SYSTEM>
0

>  <SCORE.SYSTEM.CONST>
0

>  <SCORE.SYSTEM.DIHEDRAL>
0

>  <SCORE.SYSTEM.SOLV>
0

>  <SCORE.SYSTEM.norm>
0

>  <SCORE.heavy>
25

>  <SCORE.norm>
-1.99071

>  <RMSD>
1.747

$$$$
1q8n_lig
 OpenBabel11021811413D
libRbt.so/2013.1/901 2013/11/27
 25 27  0  0  0  0  0  0  0  0999 V2000
    0.8284    0.7285   -0.6767 C   0  0  0  0  0  0  0  0  0  0  0  0
    0.8519    2.0728   -1.6030 C   0  0  0  0  0  0  0  0  0  0  0  0
   -0.9726    1.2044    4.9758 N   0  0  0  0  0  0  0  0  0  0  0  0
    0.7436    3.3270   -1.1029 C   0  0  0  0  0  0  0  0  0  0  0  0
    2.6142   -4.4939   -3.0112 N   0  0  0  0  0  0  0  0  0  0  0  0
    0.7636    4.5209   -1.9794 C   0  0  0  0  0  0  0  0  0  0  0  0
    0.8945    4.3695   -3.3173 C   0  0  0  0  0  0  0  0  0  0  0  0
    1.0183    3.0412   -3.8707 C   0  0  0  0  0  0  0  0  0  0  0  0
    0.9969    1.9726   -3.0702 C   0  0  0  0  0  0  0  0  0  0  0  0
    0.3334    0.8641    0.8714 C   0  0  0  0  0  0  0  0  0  0  0  0
   -0.4549    1.8852    1.2668 C   0  0  0  0  0  0  0  0  0  0  0  0
   -0.9163    2.0249    2.6758 C   0  0  0  0  0  0  0  0  0  0  0  0
   -0.5487    1.1079    3.6103 C   0  0  0  0  0  0  0  0  0  0  0  0
    0.3112   -0.0155    3.1924 C   0  0  0  0  0  0  0  0  0  0  0  0
    0.7191   -0.1250    1.9203 C   0  0  0  0  0  0  0  0  0  0  0  0
    1.2924   -0.7482   -1.2705 C   0  0  0  0  0  0  0  0  0  0  0  0
    1.8929   -0.8456   -2.6459 C   0  0  0  0  0  0  0  0  0  0  0  0
    2.2958   -2.0023   -3.1788 C   0  0  0  0  0  0  0  0  0  0  0  0
    2.1687   -3.2604   -2.4339 C   0  0  0  0  0  0  0  0  0  0  0  0
    1.6305   -3.2296   -1.1970 C   0  0  0  0  0  0  0  0  0  0  0  0
    1.1755   -1.9350   -0.5870 C   0  0  0  0  0  0  0  0  0  0  0  0
   -0.8969    0.0969    5.8793 C   0  0  0  0  0  0  0  0  0  0  0  0
   -1.4923    2.4370    5.4818 C   0  0  0  0  0  0  0  0  0  0  0  0
    2.0697   -5.7431   -2.5624 C   0  0  0  0  0  0  0  0  0  0  0  0
    3.6117   -4.5157   -4.0572 C   0  0  0  0  0  0  0  0  0  0  0  0
  1  2  1  0  0  0  0
  1 10  1  0  0  0  0
  1 16  1  0  0  0  0
  2  4  2  0  0  0  0
  2  9  1  0  0  0  0
  4  6  1  0  0  0  0
  6  7  2  0  0  0  0
  7  8  1  0  0  0  0
  8  9  2  0  0  0  0
 10 11  2  0  0  0  0
 10 15  1  0  0  0  0
 11 12  1  0  0  0  0
 12 13  2  0  0  0  0
 13  3  1  0  0  0  0
 13 14  1  0  0  0  0
 14 15  2  0  0  0  0
 16 17  2  0  0  0  0
 16 21  1  0  0  0  0
 17 18  1  0  0  0  0
 18 19  2  0  0  0  0
 19  5  1  0  0  0  0
 19 20  1  0  0  0  0
 20 21  2  0  0  0  0
 22  3  1  0  0  0  0
 23  3  1  0  0  0  0
 24  5  1  0  0  0  0
 25  5  1  0  0  0  0
M  END
>  <CHROM.1>
13.65165977,22.70380304,6.78199982,163.32970446,-156.44722034,0.83705178
0.05081885,-0.22623685,-3.12293325,-1.21870715,2.54610053

>  <Name>
1q8n_lig

>  <RI>
0

>  <Rbt.Current_Directory>
/home/itssahil/PROJECTS/Mol_Feturizer/New_Systems/rnas/1q8n

>  <Rbt.Executable>
rbdock ($Id: //depot/dev/client3/rdock/2013.1/src/exe/rbdock.cxx#4 $)

>  <Rbt.Library>
libRbt.so (2013.1, Build901 2013/11/27)

>  <Rbt.Parameter_File>
/export/apps/rDock/src/rDock_2013.1_src/data/scripts/dock_solv.prm

>  <Rbt.Receptor>
prm/pocket_docking_8.prm

>  <SCORE>
-48.8817

>  <SCORE.INTER>
-50.4495

>  <SCORE.INTER.CONST>
1

>  <SCORE.INTER.POLAR>
0

>  <SCORE.INTER.ROT>
5

>  <SCORE.INTER.SOLV>
9.46852

>  <SCORE.INTER.VDW>
-43.7225

>  <SCORE.INTER.norm>
-2.01798

>  <SCORE.INTRA>
1.56786

>  <SCORE.INTRA.DIHEDRAL>
3.09117

>  <SCORE.INTRA.DIHEDRAL.0>
2.1627

>  <SCORE.INTRA.POLAR>
0

>  <SCORE.INTRA.POLAR.0>
0

>  <SCORE.INTRA.REPUL>
0

>  <SCORE.INTRA.REPUL.0>
0

>  <SCORE.INTRA.SOLV>
0.0641231

>  <SCORE.INTRA.SOLV.lig_0>
-5.95779

>  <SCORE.INTRA.VDW>
-0.00978671

>  <SCORE.INTRA.VDW.0>
3.81702

>  <SCORE.INTRA.norm>
0.0627144

>  <SCORE.RESTR>
0

>  <SCORE.RESTR.CAVITY>
0

>  <SCORE.RESTR.norm>
0

>  <SCORE.SYSTEM>
0

>  <SCORE.SYSTEM.CONST>
0

>  <SCORE.SYSTEM.DIHEDRAL>
0

>  <SCORE.SYSTEM.SOLV>
0

>  <SCORE.SYSTEM.norm>
0

>  <SCORE.heavy>
25

>  <SCORE.norm>
-1.95527

>  <RMSD>
1.748

$$$$
1q8n_lig
 OpenBabel11021811413D
libRbt.so/2013.1/901 2013/11/27
 25 27  0  0  0  0  0  0  0  0999 V2000
    0.8328    0.7328   -0.6753 C   0  0  0  0  0  0  0  0  0  0  0  0
    0.8537    2.0766   -1.6022 C   0  0  0  0  0  0  0  0  0  0  0  0
   -0.9701    1.2080    4.9767 N   0  0  0  0  0  0  0  0  0  0  0  0
    0.7528    3.3314   -1.1019 C   0  0  0  0  0  0  0  0  0  0  0  0
    2.6379   -4.4867   -3.0015 N   0  0  0  0  0  0  0  0  0  0  0  0
    0.7702    4.5249   -1.9790 C   0  0  0  0  0  0  0  0  0  0  0  0
    0.8911    4.3725   -3.3177 C   0  0  0  0  0  0  0  0  0  0  0  0
    1.0068    3.0437   -3.8715 C   0  0  0  0  0  0  0  0  0  0  0  0
    0.9879    1.9755   -3.0704 C   0  0  0  0  0  0  0  0  0  0  0  0
    0.3372    0.8681    0.8727 C   0  0  0  0  0  0  0  0  0  0  0  0
   -0.4658    1.8793    1.2641 C   0  0  0  0  0  0  0  0  0  0  0  0
   -0.9280    2.0185    2.6729 C   0  0  0  0  0  0  0  0  0  0  0  0
   -0.5460    1.1114    3.6113 C   0  0  0  0  0  0  0  0  0  0  0  0
    0.3301   -0.0010    3.1977 C   0  0  0  0  0  0  0  0  0  0  0  0
    0.7384   -0.1103    1.9258 C   0  0  0  0  0  0  0  0  0  0  0  0
    1.2999   -0.7433   -1.2683 C   0  0  0  0  0  0  0  0  0  0  0  0
    1.9480   -0.8337   -2.6223 C   0  0  0  0  0  0  0  0  0  0  0  0
    2.3558   -1.9897   -3.1531 C   0  0  0  0  0  0  0  0  0  0  0  0
    2.1869   -3.2539   -2.4270 C   0  0  0  0  0  0  0  0  0  0  0  0
    1.6051   -3.2293   -1.2098 C   0  0  0  0  0  0  0  0  0  0  0  0
    1.1442   -1.9357   -0.6024 C   0  0  0  0  0  0  0  0  0  0  0  0
   -1.4908    2.4205    5.5309 C   0  0  0  0  0  0  0  0  0  0  0  0
   -0.8830    0.0702    5.8388 C   0  0  0  0  0  0  0  0  0  0  0  0
    3.6816   -4.4891   -3.9859 C   0  0  0  0  0  0  0  0  0  0  0  0
    2.0642   -5.7531   -2.6056 C   0  0  0  0  0  0  0  0  0  0  0  0
  1  2  1  0  0  0  0
  1 10  1  0  0  0  0
  1 16  1  0  0  0  0
  2  4  2  0  0  0  0
  2  9  1  0  0  0  0
  4  6  1  0  0  0  0
  6  7  2  0  0  0  0
  7  8  1  0  0  0  0
  8  9  2  0  0  0  0
 10 11  2  0  0  0  0
 10 15  1  0  0  0  0
 11 12  1  0  0  0  0
 12 13  2  0  0  0  0
 13  3  1  0  0  0  0
 13 14  1  0  0  0  0
 14 15  2  0  0  0  0
 16 17  2  0  0  0  0
 16 21  1  0  0  0  0
 17 18  1  0  0  0  0
 18 19  2  0  0  0  0
 19  5  1  0  0  0  0
 19 20  1  0  0  0  0
 20 21  2  0  0  0  0
 22  3  1  0  0  0  0
 23  3  1  0  0  0  0
 24  5  1  0  0  0  0
 25  5  1  0  0  0  0
M  END
>  <CHROM.1>
14.16498938,23.47561569,9.07089935,-17.91634684,24.35240403,0.84579763,0.05333472
-0.22257456,-3.12565003,-1.21604893,2.54315967

>  <Name>
1q8n_lig

>  <RI>
0

>  <Rbt.Current_Directory>
/home/itssahil/PROJECTS/Mol_Feturizer/New_Systems/rnas/1q8n

>  <Rbt.Executable>
rbdock ($Id: //depot/dev/client3/rdock/2013.1/src/exe/rbdock.cxx#4 $)

>  <Rbt.Library>
libRbt.so (2013.1, Build901 2013/11/27)

>  <Rbt.Parameter_File>
/export/apps/rDock/src/rDock_2013.1_src/data/scripts/dock_solv.prm

>  <Rbt.Receptor>
prm/pocket_docking_8.prm

>  <SCORE>
-48.9099

>  <SCORE.INTER>
-50.3831

>  <SCORE.INTER.CONST>
1

>  <SCORE.INTER.POLAR>
0

>  <SCORE.INTER.ROT>
5

>  <SCORE.INTER.SOLV>
9.47502

>  <SCORE.INTER.VDW>
-43.6804

>  <SCORE.INTER.norm>
-2.01532

>  <SCORE.INTRA>
1.47316

>  <SCORE.INTRA.DIHEDRAL>
3.38147

>  <SCORE.INTRA.DIHEDRAL.0>
2.1627

>  <SCORE.INTRA.POLAR>
0

>  <SCORE.INTRA.POLAR.0>
0

>  <SCORE.INTRA.REPUL>
0

>  <SCORE.INTRA.REPUL.0>
0

>  <SCORE.INTRA.SOLV>
0.0622848

>  <SCORE.INTRA.SOLV.lig_0>
-5.95779

>  <SCORE.INTRA.VDW>
-0.248719

>  <SCORE.INTRA.VDW.0>
3.81702

>  <SCORE.INTRA.norm>
0.0589264

>  <SCORE.RESTR>
0

>  <SCORE.RESTR.CAVITY>
0

>  <SCORE.RESTR.norm>
0

>  <SCORE.SYSTEM>
0

>  <SCORE.SYSTEM.CONST>
0

>  <SCORE.SYSTEM.DIHEDRAL>
0

>  <SCORE.SYSTEM.SOLV>
0

>  <SCORE.SYSTEM.norm>
0

>  <SCORE.heavy>
25

>  <SCORE.norm>
-1.9564

>  <RMSD>
1.749

$$$$
1q8n_lig
 OpenBabel11021811403D
libRbt.so/2013.1/901 2013/11/27
 25 27  0  0  0  0  0  0  0  0999 V2000
    0.9247    0.7029   -0.7795 C   0  0  0  0  0  0  0  0  0  0  0  0
    0.9265    2.0322   -1.7274 C   0  0  0  0  0  0  0  0  0  0  0  0
    2.6729   -4.4727   -3.1413 N   0  0  0  0  0  0  0  0  0  0  0  0
    1.1027    1.9928   -3.0699 C   0  0  0  0  0  0  0  0  0  0  0  0
   -0.9486    1.1015    4.8989 N   0  0  0  0  0  0  0  0  0  0  0  0
    1.1033    3.2240   -3.8933 C   0  0  0  0  0  0  0  0  0  0  0  0
    0.9227    4.4272   -3.3020 C   0  0  0  0  0  0  0  0  0  0  0  0
    0.7264    4.4913   -1.8726 C   0  0  0  0  0  0  0  0  0  0  0  0
    0.7297    3.3743   -1.1409 C   0  0  0  0  0  0  0  0  0  0  0  0
    1.4043   -0.7131   -1.4316 C   0  0  0  0  0  0  0  0  0  0  0  0
    1.9991   -0.7599   -2.6417 C   0  0  0  0  0  0  0  0  0  0  0  0
    2.4434   -2.0435   -3.2524 C   0  0  0  0  0  0  0  0  0  0  0  0
    2.2582   -3.2166   -2.5900 C   0  0  0  0  0  0  0  0  0  0  0  0
    1.6112   -3.1810   -1.2648 C   0  0  0  0  0  0  0  0  0  0  0  0
    1.2157   -2.0170   -0.7306 C   0  0  0  0  0  0  0  0  0  0  0  0
    0.4506    0.7641    0.8080 C   0  0  0  0  0  0  0  0  0  0  0  0
   -0.4536    1.8710    1.2758 C   0  0  0  0  0  0  0  0  0  0  0  0
   -0.8795    1.9721    2.5379 C   0  0  0  0  0  0  0  0  0  0  0  0
   -0.4769    0.9891    3.5505 C   0  0  0  0  0  0  0  0  0  0  0  0
    0.3390   -0.0212    3.1845 C   0  0  0  0  0  0  0  0  0  0  0  0
    0.8229   -0.1460    1.7684 C   0  0  0  0  0  0  0  0  0  0  0  0
    3.6415   -4.5637   -4.1911 C   0  0  0  0  0  0  0  0  0  0  0  0
    2.1182   -5.6939   -2.6450 C   0  0  0  0  0  0  0  0  0  0  0  0
   -1.4742    2.3459    5.3820 C   0  0  0  0  0  0  0  0  0  0  0  0
   -0.9146   -0.0267    5.8020 C   0  0  0  0  0  0  0  0  0  0  0  0
  1  2  1  0  0  0  0
  1 10  1  0  0  0  0
  1 16  1  0  0  0  0
  2  4  2  0  0  0  0
  2  9  1  0  0  0  0
  4  6  1  0  0  0  0
  6  7  2  0  0  0  0
  7  8  1  0  0  0  0
  8  9  2  0  0  0  0
 10 11  2  0  0  0  0
 10 15  1  0  0  0  0
 11 12  1  0  0  0  0
 12 13  2  0  0  0  0
 13  3  1  0  0  0  0
 13 14  1  0  0  0  0
 14 15  2  0  0  0  0
 16 17  2  0  0  0  0
 16 21  1  0  0  0  0
 17 18  1  0  0  0  0
 18 19  2  0  0  0  0
 19  5  1  0  0  0  0
 19 20  1  0  0  0  0
 20 21  2  0  0  0  0
 22  3  1  0  0  0  0
 23  3  1  0  0  0  0
 24  5  1  0  0  0  0
 25  5  1  0  0  0  0
M  END
>  <CHROM.1>
10.62341566,11.04168966,22.95680871,19.31101492,-18.58644217,0.88895182,0.03779191
-0.29749952,-0.03475069,1.21282988,-0.57435266

>  <Name>
1q8n_lig

>  <RI>
0

>  <Rbt.Current_Directory>
/home/itssahil/PROJECTS/Mol_Feturizer/New_Systems/rnas/1q8n

>  <Rbt.Executable>
rbdock ($Id: //depot/dev/client3/rdock/2013.1/src/exe/rbdock.cxx#4 $)

>  <Rbt.Library>
libRbt.so (2013.1, Build901 2013/11/27)

>  <Rbt.Parameter_File>
/export/apps/rDock/src/rDock_2013.1_src/data/scripts/dock_solv.prm

>  <Rbt.Receptor>
prm/blind_docking_20.prm

>  <SCORE>
-49.6753

>  <SCORE.INTER>
-51.2203

>  <SCORE.INTER.CONST>
1

>  <SCORE.INTER.POLAR>
0

>  <SCORE.INTER.ROT>
5

>  <SCORE.INTER.SOLV>
9.58684

>  <SCORE.INTER.VDW>
-44.2758

>  <SCORE.INTER.norm>
-2.04881

>  <SCORE.INTRA>
1.54499

>  <SCORE.INTRA.DIHEDRAL>
2.69742

>  <SCORE.INTRA.DIHEDRAL.0>
2.1627

>  <SCORE.INTRA.POLAR>
0

>  <SCORE.INTRA.POLAR.0>
0

>  <SCORE.INTRA.REPUL>
0

>  <SCORE.INTRA.REPUL.0>
0

>  <SCORE.INTRA.SOLV>
0.0635574

>  <SCORE.INTRA.SOLV.lig_0>
-5.95779

>  <SCORE.INTRA.VDW>
0.164505

>  <SCORE.INTRA.VDW.0>
3.81702

>  <SCORE.INTRA.norm>
0.0617997

>  <SCORE.RESTR>
0

>  <SCORE.RESTR.CAVITY>
0

>  <SCORE.RESTR.norm>
0

>  <SCORE.SYSTEM>
0

>  <SCORE.SYSTEM.CONST>
0

>  <SCORE.SYSTEM.DIHEDRAL>
0

>  <SCORE.SYSTEM.SOLV>
0

>  <SCORE.SYSTEM.norm>
0

>  <SCORE.heavy>
25

>  <SCORE.norm>
-1.98701

>  <RMSD>
1.751

$$$$
1q8n_lig
 OpenBabel11021811403D
libRbt.so/2013.1/901 2013/11/27
 25 27  0  0  0  0  0  0  0  0999 V2000
    0.9062    0.7216   -0.8857 C   0  0  0  0  0  0  0  0  0  0  0  0
    0.9380    2.0953   -1.7675 C   0  0  0  0  0  0  0  0  0  0  0  0
   -0.8707    1.0277    4.7862 N   0  0  0  0  0  0  0  0  0  0  0  0
    1.1527    2.1203   -3.1047 C   0  0  0  0  0  0  0  0  0  0  0  0
    2.4507   -4.6662   -3.0068 N   0  0  0  0  0  0  0  0  0  0  0  0
    1.1795    3.3900   -3.8670 C   0  0  0  0  0  0  0  0  0  0  0  0
    0.9843    4.5638   -3.2234 C   0  0  0  0  0  0  0  0  0  0  0  0
    0.7470    4.5592   -1.7988 C   0  0  0  0  0  0  0  0  0  0  0  0
    0.7270    3.4080   -1.1224 C   0  0  0  0  0  0  0  0  0  0  0  0
    0.4171    0.8104    0.6677 C   0  0  0  0  0  0  0  0  0  0  0  0
   -0.4855    1.7310    1.0652 C   0  0  0  0  0  0  0  0  0  0  0  0
   -0.9434    1.8266    2.4791 C   0  0  0  0  0  0  0  0  0  0  0  0
   -0.4548    0.9706    3.4160 C   0  0  0  0  0  0  0  0  0  0  0  0
    0.5312   -0.0429    2.9958 C   0  0  0  0  0  0  0  0  0  0  0  0
    0.9339   -0.1139    1.7193 C   0  0  0  0  0  0  0  0  0  0  0  0
    1.3559   -0.7387   -1.5292 C   0  0  0  0  0  0  0  0  0  0  0  0
    1.3397   -1.9716   -0.6683 C   0  0  0  0  0  0  0  0  0  0  0  0
    1.6807   -3.1788   -1.1274 C   0  0  0  0  0  0  0  0  0  0  0  0
    2.0974   -3.3648   -2.5222 C   0  0  0  0  0  0  0  0  0  0  0  0
    2.1353   -2.2893   -3.3361 C   0  0  0  0  0  0  0  0  0  0  0  0
    1.7527   -0.9277   -2.8316 C   0  0  0  0  0  0  0  0  0  0  0  0
   -1.3575    2.2320    5.3872 C   0  0  0  0  0  0  0  0  0  0  0  0
   -0.8095   -0.1430    5.6054 C   0  0  0  0  0  0  0  0  0  0  0  0
    3.2929   -4.8068   -4.1598 C   0  0  0  0  0  0  0  0  0  0  0  0
    1.9786   -5.8647   -2.3509 C   0  0  0  0  0  0  0  0  0  0  0  0
  1  2  1  0  0  0  0
  1 10  1  0  0  0  0
  1 16  1  0  0  0  0
  2  4  2  0  0  0  0
  2  9  1  0  0  0  0
  4  6  1  0  0  0  0
  6  7  2  0  0  0  0
  7  8  1  0  0  0  0
  8  9  2  0  0  0  0
 10 11  2  0  0  0  0
 10 15  1  0  0  0  0
 11 12  1  0  0  0  0
 12 13  2  0  0  0  0
 13  3  1  0  0  0  0
 13 14  1  0  0  0  0
 14 15  2  0  0  0  0
 16 17  2  0  0  0  0
 16 21  1  0  0  0  0
 17 18  1  0  0  0  0
 18 19  2  0  0  0  0
 19  5  1  0  0  0  0
 19 20  1  0  0  0  0
 20 21  2  0  0  0  0
 22  3  1  0  0  0  0
 23  3  1  0  0  0  0
 24  5  1  0  0  0  0
 25  5  1  0  0  0  0
M  END
>  <CHROM.1>
-170.92671294,30.61058640,178.60581605,-25.95191859,-157.40629086,0.86444610
-0.00943531,-0.32368449,-0.12948767,1.23459904,-0.53399800

>  <Name>
1q8n_lig

>  <RI>
0

>  <Rbt.Current_Directory>
/home/itssahil/PROJECTS/Mol_Feturizer/New_Systems/rnas/1q8n

>  <Rbt.Executable>
rbdock ($Id: //depot/dev/client3/rdock/2013.1/src/exe/rbdock.cxx#4 $)

>  <Rbt.Library>
libRbt.so (2013.1, Build901 2013/11/27)

>  <Rbt.Parameter_File>
/export/apps/rDock/src/rDock_2013.1_src/data/scripts/dock_solv.prm

>  <Rbt.Receptor>
prm/blind_docking_80.prm

>  <SCORE>
-48.2894

>  <SCORE.INTER>
-49.9032

>  <SCORE.INTER.CONST>
1

>  <SCORE.INTER.POLAR>
0

>  <SCORE.INTER.ROT>
5

>  <SCORE.INTER.SOLV>
9.9067

>  <SCORE.INTER.VDW>
-43.5043

>  <SCORE.INTER.norm>
-1.99613

>  <SCORE.INTRA>
1.61374

>  <SCORE.INTRA.DIHEDRAL>
4.33489

>  <SCORE.INTRA.DIHEDRAL.0>
2.1627

>  <SCORE.INTRA.POLAR>
0

>  <SCORE.INTRA.POLAR.0>
0

>  <SCORE.INTRA.REPUL>
0

>  <SCORE.INTRA.REPUL.0>
0

>  <SCORE.INTRA.SOLV>
0.0602782

>  <SCORE.INTRA.SOLV.lig_0>
-5.95779

>  <SCORE.INTRA.VDW>
-0.583843

>  <SCORE.INTRA.VDW.0>
3.81702

>  <SCORE.INTRA.norm>
0.0645497

>  <SCORE.RESTR>
0

>  <SCORE.RESTR.CAVITY>
0

>  <SCORE.RESTR.norm>
0

>  <SCORE.SYSTEM>
0

>  <SCORE.SYSTEM.CONST>
0

>  <SCORE.SYSTEM.DIHEDRAL>
0

>  <SCORE.SYSTEM.SOLV>
0

>  <SCORE.SYSTEM.norm>
0

>  <SCORE.heavy>
25

>  <SCORE.norm>
-1.93158

>  <RMSD>
1.752

$$$$
1q8n_lig
 OpenBabel11021811403D
libRbt.so/2013.1/901 2013/11/27
 25 27  0  0  0  0  0  0  0  0999 V2000
    0.8823    0.6935   -0.7143 C   0  0  0  0  0  0  0  0  0  0  0  0
    0.9031    2.0105   -1.6790 C   0  0  0  0  0  0  0  0  0  0  0  0
    2.5943   -4.5128   -3.0348 N   0  0  0  0  0  0  0  0  0  0  0  0
    1.0924    1.9524   -3.0191 C   0  0  0  0  0  0  0  0  0  0  0  0
   -1.0226    1.1811    4.9467 N   0  0  0  0  0  0  0  0  0  0  0  0
    1.1100    3.1729   -3.8581 C   0  0  0  0  0  0  0  0  0  0  0  0
    0.9321    4.3849   -3.2842 C   0  0  0  0  0  0  0  0  0  0  0  0
    0.7219    4.4688   -1.8578 C   0  0  0  0  0  0  0  0  0  0  0  0
    0.7099    3.3614   -1.1118 C   0  0  0  0  0  0  0  0  0  0  0  0
    1.3513   -0.7355   -1.3453 C   0  0  0  0  0  0  0  0  0  0  0  0
    1.2274   -1.8829   -0.6464 C   0  0  0  0  0  0  0  0  0  0  0  0
    1.6502   -3.1964   -1.2066 C   0  0  0  0  0  0  0  0  0  0  0  0
    2.1771   -3.2690   -2.4582 C   0  0  0  0  0  0  0  0  0  0  0  0
    2.3167   -2.0228   -3.2352 C   0  0  0  0  0  0  0  0  0  0  0  0
    1.9327   -0.8487   -2.7150 C   0  0  0  0  0  0  0  0  0  0  0  0
    0.3996    0.7799    0.8695 C   0  0  0  0  0  0  0  0  0  0  0  0
   -0.5138    1.8892    1.3130 C   0  0  0  0  0  0  0  0  0  0  0  0
   -0.9468    2.0101    2.5709 C   0  0  0  0  0  0  0  0  0  0  0  0
   -0.5434    1.0478    3.6029 C   0  0  0  0  0  0  0  0  0  0  0  0
    0.2808    0.0363    3.2590 C   0  0  0  0  0  0  0  0  0  0  0  0
    0.7726   -0.1106    1.8479 C   0  0  0  0  0  0  0  0  0  0  0  0
    2.0555   -5.7695   -2.6119 C   0  0  0  0  0  0  0  0  0  0  0  0
    3.5802   -4.5302   -4.0706 C   0  0  0  0  0  0  0  0  0  0  0  0
   -1.0196    0.0528    5.8330 C   0  0  0  0  0  0  0  0  0  0  0  0
   -1.5130    2.4457    5.4464 C   0  0  0  0  0  0  0  0  0  0  0  0
  1  2  1  0  0  0  0
  1 10  1  0  0  0  0
  1 16  1  0  0  0  0
  2  4  2  0  0  0  0
  2  9  1  0  0  0  0
  4  6  1  0  0  0  0
  6  7  2  0  0  0  0
  7  8  1  0  0  0  0
  8  9  2  0  0  0  0
 10 11  2  0  0  0  0
 10 15  1  0  0  0  0
 11 12  1  0  0  0  0
 12 13  2  0  0  0  0
 13  3  1  0  0  0  0
 13 14  1  0  0  0  0
 14 15  2  0  0  0  0
 16 17  2  0  0  0  0
 16 21  1  0  0  0  0
 17 18  1  0  0  0  0
 18 19  2  0  0  0  0
 19  5  1  0  0  0  0
 19 20  1  0  0  0  0
 20 21  2  0  0  0  0
 22  3  1  0  0  0  0
 23  3  1  0  0  0  0
 24  5  1  0  0  0  0
 25  5  1  0  0  0  0
M  END
>  <CHROM.1>
10.32543133,-173.08719553,23.93748190,24.38624027,159.00097385,0.84299786
0.04572696,-0.24518204,-0.05197361,1.21367118,-0.56201542

>  <Name>
1q8n_lig

>  <RI>
0

>  <Rbt.Current_Directory>
/home/itssahil/PROJECTS/Mol_Feturizer/New_Systems/rnas/1q8n

>  <Rbt.Executable>
rbdock ($Id: //depot/dev/client3/rdock/2013.1/src/exe/rbdock.cxx#4 $)

>  <Rbt.Library>
libRbt.so (2013.1, Build901 2013/11/27)

>  <Rbt.Parameter_File>
/export/apps/rDock/src/rDock_2013.1_src/data/scripts/dock_solv.prm

>  <Rbt.Receptor>
prm/pocket_docking_5.prm

>  <SCORE>
-49.7587

>  <SCORE.INTER>
-51.5213

>  <SCORE.INTER.CONST>
1

>  <SCORE.INTER.POLAR>
0

>  <SCORE.INTER.ROT>
5

>  <SCORE.INTER.SOLV>
9.63497

>  <SCORE.INTER.VDW>
-44.4926

>  <SCORE.INTER.norm>
-2.06085

>  <SCORE.INTRA>
1.76261

>  <SCORE.INTRA.DIHEDRAL>
3.82409

>  <SCORE.INTRA.DIHEDRAL.0>
2.1627

>  <SCORE.INTRA.POLAR>
0

>  <SCORE.INTRA.POLAR.0>
0

>  <SCORE.INTRA.REPUL>
0

>  <SCORE.INTRA.REPUL.0>
0

>  <SCORE.INTRA.SOLV>
0.0645998

>  <SCORE.INTRA.SOLV.lig_0>
-5.95779

>  <SCORE.INTRA.VDW>
-0.181733

>  <SCORE.INTRA.VDW.0>
3.81702

>  <SCORE.INTRA.norm>
0.0705045

>  <SCORE.RESTR>
0

>  <SCORE.RESTR.CAVITY>
0

>  <SCORE.RESTR.norm>
0

>  <SCORE.SYSTEM>
0

>  <SCORE.SYSTEM.CONST>
0

>  <SCORE.SYSTEM.DIHEDRAL>
0

>  <SCORE.SYSTEM.SOLV>
0

>  <SCORE.SYSTEM.norm>
0

>  <SCORE.heavy>
25

>  <SCORE.norm>
-1.99035

>  <RMSD>
1.753

$$$$
1q8n_lig
 OpenBabel11021811403D
libRbt.so/2013.1/901 2013/11/27
 25 27  0  0  0  0  0  0  0  0999 V2000
    0.9021    0.6806   -0.7545 C   0  0  0  0  0  0  0  0  0  0  0  0
    0.9165    2.0045   -1.7098 C   0  0  0  0  0  0  0  0  0  0  0  0
    2.6152   -4.5217   -3.0832 N   0  0  0  0  0  0  0  0  0  0  0  0
    1.0862    1.9553   -3.0528 C   0  0  0  0  0  0  0  0  0  0  0  0
   -0.9794    1.1262    4.9178 N   0  0  0  0  0  0  0  0  0  0  0  0
    1.0986    3.1818   -3.8831 C   0  0  0  0  0  0  0  0  0  0  0  0
    0.9358    4.3905   -3.2978 C   0  0  0  0  0  0  0  0  0  0  0  0
    0.7466    4.4651   -1.8679 C   0  0  0  0  0  0  0  0  0  0  0  0
    0.7391    3.3522   -1.1299 C   0  0  0  0  0  0  0  0  0  0  0  0
    1.3717   -0.7428   -1.3976 C   0  0  0  0  0  0  0  0  0  0  0  0
    1.8962   -0.8104   -2.6388 C   0  0  0  0  0  0  0  0  0  0  0  0
    2.3303   -2.1010   -3.2419 C   0  0  0  0  0  0  0  0  0  0  0  0
    2.2077   -3.2596   -2.5405 C   0  0  0  0  0  0  0  0  0  0  0  0
    1.6381   -3.2011   -1.1810 C   0  0  0  0  0  0  0  0  0  0  0  0
    1.2507   -2.0312   -0.6541 C   0  0  0  0  0  0  0  0  0  0  0  0
    0.4252    0.7545    0.8317 C   0  0  0  0  0  0  0  0  0  0  0  0
   -0.4700    1.8718    1.2917 C   0  0  0  0  0  0  0  0  0  0  0  0
   -0.8976    1.9835    2.5523 C   0  0  0  0  0  0  0  0  0  0  0  0
   -0.5060    1.0024    3.5710 C   0  0  0  0  0  0  0  0  0  0  0  0
    0.3017   -0.0171    3.2121 C   0  0  0  0  0  0  0  0  0  0  0  0
    0.7874   -0.1538    1.7978 C   0  0  0  0  0  0  0  0  0  0  0  0
    2.0762   -5.7632   -2.6175 C   0  0  0  0  0  0  0  0  0  0  0  0
    3.5911   -4.5740   -4.1273 C   0  0  0  0  0  0  0  0  0  0  0  0
   -1.4582    2.3878    5.4051 C   0  0  0  0  0  0  0  0  0  0  0  0
   -0.9941   -0.0071    5.8150 C   0  0  0  0  0  0  0  0  0  0  0  0
  1  2  1  0  0  0  0
  1 10  1  0  0  0  0
  1 16  1  0  0  0  0
  2  4  2  0  0  0  0
  2  9  1  0  0  0  0
  4  6  1  0  0  0  0
  6  7  2  0  0  0  0
  7  8  1  0  0  0  0
  8  9  2  0  0  0  0
 10 11  2  0  0  0  0
 10 15  1  0  0  0  0
 11 12  1  0  0  0  0
 12 13  2  0  0  0  0
 13  3  1  0  0  0  0
 13 14  1  0  0  0  0
 14 15  2  0  0  0  0
 16 17  2  0  0  0  0
 16 21  1  0  0  0  0
 17 18  1  0  0  0  0
 18 19  2  0  0  0  0
 19  5  1  0  0  0  0
 19 20  1  0  0  0  0
 20 21  2  0  0  0  0
 22  3  1  0  0  0  0
 23  3  1  0  0  0  0
 24  5  1  0  0  0  0
 25  5  1  0  0  0  0
M  END
>  <CHROM.1>
11.07854755,7.06771014,22.89961803,-156.54636592,-20.43116121,0.86239669
0.01978541,-0.27004326,-0.05119972,1.21580416,-0.56416593

>  <Name>
1q8n_lig

>  <RI>
0

>  <Rbt.Current_Directory>
/home/itssahil/PROJECTS/Mol_Feturizer/New_Systems/rnas/1q8n

>  <Rbt.Executable>
rbdock ($Id: //depot/dev/client3/rdock/2013.1/src/exe/rbdock.cxx#4 $)

>  <Rbt.Library>
libRbt.so (2013.1, Build901 2013/11/27)

>  <Rbt.Parameter_File>
/export/apps/rDock/src/rDock_2013.1_src/data/scripts/dock_solv.prm

>  <Rbt.Receptor>
prm/blind_docking_60.prm

>  <SCORE>
-49.5757

>  <SCORE.INTER>
-51.3669

>  <SCORE.INTER.CONST>
1

>  <SCORE.INTER.POLAR>
0

>  <SCORE.INTER.ROT>
5

>  <SCORE.INTER.SOLV>
9.54948

>  <SCORE.INTER.VDW>
-44.3611

>  <SCORE.INTER.norm>
-2.05468

>  <SCORE.INTRA>
1.79126

>  <SCORE.INTRA.DIHEDRAL>
3.58502

>  <SCORE.INTRA.DIHEDRAL.0>
2.1627

>  <SCORE.INTRA.POLAR>
0

>  <SCORE.INTRA.POLAR.0>
0

>  <SCORE.INTRA.REPUL>
0

>  <SCORE.INTRA.REPUL.0>
0

>  <SCORE.INTRA.SOLV>
0.064793

>  <SCORE.INTRA.SOLV.lig_0>
-5.95779

>  <SCORE.INTRA.VDW>
-0.0336451

>  <SCORE.INTRA.VDW.0>
3.81702

>  <SCORE.INTRA.norm>
0.0716505

>  <SCORE.RESTR>
0

>  <SCORE.RESTR.CAVITY>
0

>  <SCORE.RESTR.norm>
0

>  <SCORE.SYSTEM>
0

>  <SCORE.SYSTEM.CONST>
0

>  <SCORE.SYSTEM.DIHEDRAL>
0

>  <SCORE.SYSTEM.SOLV>
0

>  <SCORE.SYSTEM.norm>
0

>  <SCORE.heavy>
25

>  <SCORE.norm>
-1.98303

>  <RMSD>
1.756

$$$$
1q8n_lig
 OpenBabel11021811403D
libRbt.so/2013.1/901 2013/11/27
 25 27  0  0  0  0  0  0  0  0999 V2000
    0.9180    0.7312   -0.8798 C   0  0  0  0  0  0  0  0  0  0  0  0
    0.9437    2.1067   -1.7590 C   0  0  0  0  0  0  0  0  0  0  0  0
   -0.8558    1.0193    4.7940 N   0  0  0  0  0  0  0  0  0  0  0  0
    1.1884    2.1380   -3.0909 C   0  0  0  0  0  0  0  0  0  0  0  0
    2.4606   -4.6483   -3.0234 N   0  0  0  0  0  0  0  0  0  0  0  0
    1.2083    3.4092   -3.8508 C   0  0  0  0  0  0  0  0  0  0  0  0
    0.9760    4.5780   -3.2105 C   0  0  0  0  0  0  0  0  0  0  0  0
    0.7063    4.5665   -1.7917 C   0  0  0  0  0  0  0  0  0  0  0  0
    0.6929    3.4141   -1.1173 C   0  0  0  0  0  0  0  0  0  0  0  0
    0.4298    0.8151    0.6742 C   0  0  0  0  0  0  0  0  0  0  0  0
   -0.4679    1.7385    1.0763 C   0  0  0  0  0  0  0  0  0  0  0  0
   -0.9249    1.8297    2.4908 C   0  0  0  0  0  0  0  0  0  0  0  0
   -0.4405    0.9667    3.4234 C   0  0  0  0  0  0  0  0  0  0  0  0
    0.5401   -0.0500    2.9981 C   0  0  0  0  0  0  0  0  0  0  0  0
    0.9421   -0.1169    1.7212 C   0  0  0  0  0  0  0  0  0  0  0  0
    1.3730   -0.7261   -1.5264 C   0  0  0  0  0  0  0  0  0  0  0  0
    1.2407   -1.9808   -0.7081 C   0  0  0  0  0  0  0  0  0  0  0  0
    1.5799   -3.1864   -1.1728 C   0  0  0  0  0  0  0  0  0  0  0  0
    2.1101   -3.3488   -2.5316 C   0  0  0  0  0  0  0  0  0  0  0  0
    2.2547   -2.2534   -3.3060 C   0  0  0  0  0  0  0  0  0  0  0  0
    1.8753   -0.8933   -2.7949 C   0  0  0  0  0  0  0  0  0  0  0  0
   -1.3679    2.2148    5.3916 C   0  0  0  0  0  0  0  0  0  0  0  0
   -0.7681   -0.1469    5.6171 C   0  0  0  0  0  0  0  0  0  0  0  0
    3.2948   -4.7842   -4.1827 C   0  0  0  0  0  0  0  0  0  0  0  0
    1.9935   -5.8494   -2.3687 C   0  0  0  0  0  0  0  0  0  0  0  0
  1  2  1  0  0  0  0
  1 10  1  0  0  0  0
  1 16  1  0  0  0  0
  2  4  2  0  0  0  0
  2  9  1  0  0  0  0
  4  6  1  0  0  0  0
  6  7  2  0  0  0  0
  7  8  1  0  0  0  0
  8  9  2  0  0  0  0
 10 11  2  0  0  0  0
 10 15  1  0  0  0  0
 11 12  1  0  0  0  0
 12 13  2  0  0  0  0
 13  3  1  0  0  0  0
 13 14  1  0  0  0  0
 14 15  2  0  0  0  0
 16 17  2  0  0  0  0
 16 21  1  0  0  0  0
 17 18  1  0  0  0  0
 18 19  2  0  0  0  0
 19  5  1  0  0  0  0
 19 20  1  0  0  0  0
 20 21  2  0  0  0  0
 22  3  1  0  0  0  0
 23  3  1  0  0  0  0
 24  5  1  0  0  0  0
 25  5  1  0  0  0  0
M  END
>  <CHROM.1>
-172.53879712,30.05726785,-175.69181312,-24.33485832,-163.32197608,0.87343555
-0.00173678,-0.32186852,-0.12988962,1.23351629,-0.52986202

>  <Name>
1q8n_lig

>  <RI>
0

>  <Rbt.Current_Directory>
/home/itssahil/PROJECTS/Mol_Feturizer/New_Systems/rnas/1q8n

>  <Rbt.Executable>
rbdock ($Id: //depot/dev/client3/rdock/2013.1/src/exe/rbdock.cxx#4 $)

>  <Rbt.Library>
libRbt.so (2013.1, Build901 2013/11/27)

>  <Rbt.Parameter_File>
/export/apps/rDock/src/rDock_2013.1_src/data/scripts/dock_solv.prm

>  <Rbt.Receptor>
prm/pocket_docking_4.prm

>  <SCORE>
-48.4736

>  <SCORE.INTER>
-49.9119

>  <SCORE.INTER.CONST>
1

>  <SCORE.INTER.POLAR>
0

>  <SCORE.INTER.ROT>
5

>  <SCORE.INTER.SOLV>
9.87695

>  <SCORE.INTER.VDW>
-43.5003

>  <SCORE.INTER.norm>
-1.99648

>  <SCORE.INTRA>
1.43833

>  <SCORE.INTRA.DIHEDRAL>
3.22278

>  <SCORE.INTRA.DIHEDRAL.0>
2.1627

>  <SCORE.INTRA.POLAR>
0

>  <SCORE.INTRA.POLAR.0>
0

>  <SCORE.INTRA.REPUL>
0

>  <SCORE.INTRA.REPUL.0>
0

>  <SCORE.INTRA.SOLV>
0.0605419

>  <SCORE.INTRA.SOLV.lig_0>
-5.95779

>  <SCORE.INTRA.VDW>
-0.203333

>  <SCORE.INTRA.VDW.0>
3.81702

>  <SCORE.INTRA.norm>
0.0575331

>  <SCORE.RESTR>
0

>  <SCORE.RESTR.CAVITY>
0

>  <SCORE.RESTR.norm>
0

>  <SCORE.SYSTEM>
0

>  <SCORE.SYSTEM.CONST>
0

>  <SCORE.SYSTEM.DIHEDRAL>
0

>  <SCORE.SYSTEM.SOLV>
0

>  <SCORE.SYSTEM.norm>
0

>  <SCORE.heavy>
25

>  <SCORE.norm>
-1.93894

>  <RMSD>
1.758

$$$$
1q8n_lig
 OpenBabel11021811413D
libRbt.so/2013.1/901 2013/11/27
 25 27  0  0  0  0  0  0  0  0999 V2000
    0.8183    0.7297   -0.6479 C   0  0  0  0  0  0  0  0  0  0  0  0
    0.8603    2.0815   -1.5625 C   0  0  0  0  0  0  0  0  0  0  0  0
   -1.0347    1.2105    4.9875 N   0  0  0  0  0  0  0  0  0  0  0  0
    0.7080    3.3297   -1.0589 C   0  0  0  0  0  0  0  0  0  0  0  0
    2.5753   -4.4879   -3.0148 N   0  0  0  0  0  0  0  0  0  0  0  0
    0.7470    4.5306   -1.9250 C   0  0  0  0  0  0  0  0  0  0  0  0
    0.9407    4.3920   -3.2566 C   0  0  0  0  0  0  0  0  0  0  0  0
    1.1122    3.0705   -3.8134 C   0  0  0  0  0  0  0  0  0  0  0  0
    1.0731    1.9954   -3.0224 C   0  0  0  0  0  0  0  0  0  0  0  0
    0.3119    0.8563    0.8974 C   0  0  0  0  0  0  0  0  0  0  0  0
    0.6640   -0.0571    1.8258 C   0  0  0  0  0  0  0  0  0  0  0  0
    0.2111    0.0425    3.2410 C   0  0  0  0  0  0  0  0  0  0  0  0
   -0.5790    1.0767    3.6354 C   0  0  0  0  0  0  0  0  0  0  0  0
   -0.9704    2.0845    2.6318 C   0  0  0  0  0  0  0  0  0  0  0  0
   -0.5553    1.9786    1.3618 C   0  0  0  0  0  0  0  0  0  0  0  0
    1.2748   -0.7458   -1.2505 C   0  0  0  0  0  0  0  0  0  0  0  0
    1.8619   -0.8399   -2.6318 C   0  0  0  0  0  0  0  0  0  0  0  0
    2.2582   -1.9955   -3.1720 C   0  0  0  0  0  0  0  0  0  0  0  0
    2.1368   -3.2556   -2.4296 C   0  0  0  0  0  0  0  0  0  0  0  0
    1.6106   -3.2278   -1.1875 C   0  0  0  0  0  0  0  0  0  0  0  0
    1.1630   -1.9346   -0.5694 C   0  0  0  0  0  0  0  0  0  0  0  0
   -1.0402    0.1112    5.9040 C   0  0  0  0  0  0  0  0  0  0  0  0
   -1.5046    2.4736    5.4660 C   0  0  0  0  0  0  0  0  0  0  0  0
    3.5566   -4.4850   -4.0614 C   0  0  0  0  0  0  0  0  0  0  0  0
    2.0513   -5.7589   -2.5681 C   0  0  0  0  0  0  0  0  0  0  0  0
  1  2  1  0  0  0  0
  1 10  1  0  0  0  0
  1 16  1  0  0  0  0
  2  4  2  0  0  0  0
  2  9  1  0  0  0  0
  4  6  1  0  0  0  0
  6  7  2  0  0  0  0
  7  8  1  0  0  0  0
  8  9  2  0  0  0  0
 10 11  2  0  0  0  0
 10 15  1  0  0  0  0
 11 12  1  0  0  0  0
 12 13  2  0  0  0  0
 13  3  1  0  0  0  0
 13 14  1  0  0  0  0
 14 15  2  0  0  0  0
 16 17  2  0  0  0  0
 16 21  1  0  0  0  0
 17 18  1  0  0  0  0
 18 19  2  0  0  0  0
 19  5  1  0  0  0  0
 19 20  1  0  0  0  0
 20 21  2  0  0  0  0
 22  3  1  0  0  0  0
 23  3  1  0  0  0  0
 24  5  1  0  0  0  0
 25  5  1  0  0  0  0
M  END
>  <CHROM.1>
11.07147351,-157.08526197,5.64727530,-18.93429254,23.28715879,0.80885060
0.06852406,-0.20809911,-3.07750981,-1.21467687,2.58979467

>  <Name>
1q8n_lig

>  <RI>
0

>  <Rbt.Current_Directory>
/home/itssahil/PROJECTS/Mol_Feturizer/New_Systems/rnas/1q8n

>  <Rbt.Executable>
rbdock ($Id: //depot/dev/client3/rdock/2013.1/src/exe/rbdock.cxx#4 $)

>  <Rbt.Library>
libRbt.so (2013.1, Build901 2013/11/27)

>  <Rbt.Parameter_File>
/export/apps/rDock/src/rDock_2013.1_src/data/scripts/dock_solv.prm

>  <Rbt.Receptor>
prm/pocket_docking_8.prm

>  <SCORE>
-49.2163

>  <SCORE.INTER>
-50.8364

>  <SCORE.INTER.CONST>
1

>  <SCORE.INTER.POLAR>
0

>  <SCORE.INTER.ROT>
5

>  <SCORE.INTER.SOLV>
9.55915

>  <SCORE.INTER.VDW>
-44.0107

>  <SCORE.INTER.norm>
-2.03346

>  <SCORE.INTRA>
1.6201

>  <SCORE.INTRA.DIHEDRAL>
3.34407

>  <SCORE.INTRA.DIHEDRAL.0>
2.1627

>  <SCORE.INTRA.POLAR>
0

>  <SCORE.INTRA.POLAR.0>
0

>  <SCORE.INTRA.REPUL>
0

>  <SCORE.INTRA.REPUL.0>
0

>  <SCORE.INTRA.SOLV>
0.0657247

>  <SCORE.INTRA.SOLV.lig_0>
-5.95779

>  <SCORE.INTRA.VDW>
-0.0847954

>  <SCORE.INTRA.VDW.0>
3.81702

>  <SCORE.INTRA.norm>
0.0648041

>  <SCORE.RESTR>
0

>  <SCORE.RESTR.CAVITY>
0

>  <SCORE.RESTR.norm>
0

>  <SCORE.SYSTEM>
0

>  <SCORE.SYSTEM.CONST>
0

>  <SCORE.SYSTEM.DIHEDRAL>
0

>  <SCORE.SYSTEM.SOLV>
0

>  <SCORE.SYSTEM.norm>
0

>  <SCORE.heavy>
25

>  <SCORE.norm>
-1.96865

>  <RMSD>
1.758

$$$$
1q8n_lig
 OpenBabel11021811403D
libRbt.so/2013.1/901 2013/11/27
 25 27  0  0  0  0  0  0  0  0999 V2000
    0.9229    0.6918   -0.7780 C   0  0  0  0  0  0  0  0  0  0  0  0
    0.9191    2.0210   -1.7259 C   0  0  0  0  0  0  0  0  0  0  0  0
    2.6543   -4.4845   -3.1508 N   0  0  0  0  0  0  0  0  0  0  0  0
    1.0853    1.9814   -3.0697 C   0  0  0  0  0  0  0  0  0  0  0  0
   -0.9138    1.0911    4.9123 N   0  0  0  0  0  0  0  0  0  0  0  0
    1.0811    3.2126   -3.8931 C   0  0  0  0  0  0  0  0  0  0  0  0
    0.9062    4.4160   -3.3005 C   0  0  0  0  0  0  0  0  0  0  0  0
    0.7205    4.4804   -1.8697 C   0  0  0  0  0  0  0  0  0  0  0  0
    0.7281    3.3634   -1.1380 C   0  0  0  0  0  0  0  0  0  0  0  0
    1.3978   -0.7244   -1.4331 C   0  0  0  0  0  0  0  0  0  0  0  0
    1.9759   -0.7725   -2.6513 C   0  0  0  0  0  0  0  0  0  0  0  0
    2.4157   -2.0563   -3.2648 C   0  0  0  0  0  0  0  0  0  0  0  0
    2.2434   -3.2283   -2.5970 C   0  0  0  0  0  0  0  0  0  0  0  0
    1.6147   -3.1912   -1.2631 C   0  0  0  0  0  0  0  0  0  0  0  0
    1.2230   -2.0271   -0.7264 C   0  0  0  0  0  0  0  0  0  0  0  0
    0.4590    0.7531    0.8125 C   0  0  0  0  0  0  0  0  0  0  0  0
   -0.4418    1.8603    1.2861 C   0  0  0  0  0  0  0  0  0  0  0  0
   -0.8595    1.9617    2.5508 C   0  0  0  0  0  0  0  0  0  0  0  0
   -0.4508    0.9785    3.5609 C   0  0  0  0  0  0  0  0  0  0  0  0
    0.3624   -0.0321    3.1897 C   0  0  0  0  0  0  0  0  0  0  0  0
    0.8371   -0.1571    1.7705 C   0  0  0  0  0  0  0  0  0  0  0  0
    2.1093   -5.7306   -2.7051 C   0  0  0  0  0  0  0  0  0  0  0  0
    3.6400   -4.5258   -4.1862 C   0  0  0  0  0  0  0  0  0  0  0  0
   -0.8735   -0.0435    5.7895 C   0  0  0  0  0  0  0  0  0  0  0  0
   -1.4246    2.3408    5.4288 C   0  0  0  0  0  0  0  0  0  0  0  0
  1  2  1  0  0  0  0
  1 10  1  0  0  0  0
  1 16  1  0  0  0  0
  2  4  2  0  0  0  0
  2  9  1  0  0  0  0
  4  6  1  0  0  0  0
  6  7  2  0  0  0  0
  7  8  1  0  0  0  0
  8  9  2  0  0  0  0
 10 11  2  0  0  0  0
 10 15  1  0  0  0  0
 11 12  1  0  0  0  0
 12 13  2  0  0  0  0
 13  3  1  0  0  0  0
 13 14  1  0  0  0  0
 14 15  2  0  0  0  0
 16 17  2  0  0  0  0
 16 21  1  0  0  0  0
 17 18  1  0  0  0  0
 18 19  2  0  0  0  0
 19  5  1  0  0  0  0
 19 20  1  0  0  0  0
 20 21  2  0  0  0  0
 22  3  1  0  0  0  0
 23  3  1  0  0  0  0
 24  5  1  0  0  0  0
 25  5  1  0  0  0  0
M  END
>  <CHROM.1>
10.69484719,10.54935601,22.95479707,-158.82607298,160.74804305,0.89207737
0.02773197,-0.29707136,-0.02416775,1.21836305,-0.58379802

>  <Name>
1q8n_lig

>  <RI>
0

>  <Rbt.Current_Directory>
/home/itssahil/PROJECTS/Mol_Feturizer/New_Systems/rnas/1q8n

>  <Rbt.Executable>
rbdock ($Id: //depot/dev/client3/rdock/2013.1/src/exe/rbdock.cxx#4 $)

>  <Rbt.Library>
libRbt.so (2013.1, Build901 2013/11/27)

>  <Rbt.Parameter_File>
/export/apps/rDock/src/rDock_2013.1_src/data/scripts/dock_solv.prm

>  <Rbt.Receptor>
prm/blind_docking_80.prm

>  <SCORE>
-49.4602

>  <SCORE.INTER>
-51.1405

>  <SCORE.INTER.CONST>
1

>  <SCORE.INTER.POLAR>
0

>  <SCORE.INTER.ROT>
5

>  <SCORE.INTER.SOLV>
9.54905

>  <SCORE.INTER.VDW>
-44.21

>  <SCORE.INTER.norm>
-2.04562

>  <SCORE.INTRA>
1.68024

>  <SCORE.INTRA.DIHEDRAL>
3.05887

>  <SCORE.INTRA.DIHEDRAL.0>
2.1627

>  <SCORE.INTRA.POLAR>
0

>  <SCORE.INTRA.POLAR.0>
0

>  <SCORE.INTRA.REPUL>
0

>  <SCORE.INTRA.REPUL.0>
0

>  <SCORE.INTRA.SOLV>
0.063648

>  <SCORE.INTRA.SOLV.lig_0>
-5.95779

>  <SCORE.INTRA.VDW>
0.118977

>  <SCORE.INTRA.VDW.0>
3.81702

>  <SCORE.INTRA.norm>
0.0672095

>  <SCORE.RESTR>
0

>  <SCORE.RESTR.CAVITY>
0

>  <SCORE.RESTR.norm>
0

>  <SCORE.SYSTEM>
0

>  <SCORE.SYSTEM.CONST>
0

>  <SCORE.SYSTEM.DIHEDRAL>
0

>  <SCORE.SYSTEM.SOLV>
0

>  <SCORE.SYSTEM.norm>
0

>  <SCORE.heavy>
25

>  <SCORE.norm>
-1.97841

>  <RMSD>
1.764

$$$$
1q8n_lig
 OpenBabel11021811413D
libRbt.so/2013.1/901 2013/11/27
 25 27  0  0  0  0  0  0  0  0999 V2000
    0.8395    0.7472   -0.6586 C   0  0  0  0  0  0  0  0  0  0  0  0
    0.8792    2.0947   -1.5795 C   0  0  0  0  0  0  0  0  0  0  0  0
   -0.9933    1.2155    4.9844 N   0  0  0  0  0  0  0  0  0  0  0  0
    0.7226    3.3449   -1.0820 C   0  0  0  0  0  0  0  0  0  0  0  0
    2.5973   -4.4802   -3.0034 N   0  0  0  0  0  0  0  0  0  0  0  0
    0.7596    4.5418   -1.9537 C   0  0  0  0  0  0  0  0  0  0  0  0
    0.9559    4.3975   -3.2844 C   0  0  0  0  0  0  0  0  0  0  0  0
    1.1319    3.0738   -3.8346 C   0  0  0  0  0  0  0  0  0  0  0  0
    1.0946    2.0024   -3.0386 C   0  0  0  0  0  0  0  0  0  0  0  0
    0.3357    0.8806    0.8869 C   0  0  0  0  0  0  0  0  0  0  0  0
   -0.4655    1.8939    1.2763 C   0  0  0  0  0  0  0  0  0  0  0  0
   -0.9351    2.0315    2.6828 C   0  0  0  0  0  0  0  0  0  0  0  0
   -0.5619    1.1207    3.6211 C   0  0  0  0  0  0  0  0  0  0  0  0
    0.3122    0.0059    3.2097 C   0  0  0  0  0  0  0  0  0  0  0  0
    0.7273   -0.1019    1.9398 C   0  0  0  0  0  0  0  0  0  0  0  0
    1.2959   -0.7309   -1.2552 C   0  0  0  0  0  0  0  0  0  0  0  0
    1.8906   -0.8296   -2.6329 C   0  0  0  0  0  0  0  0  0  0  0  0
    2.2872   -1.9874   -3.1682 C   0  0  0  0  0  0  0  0  0  0  0  0
    2.1585   -3.2455   -2.4235 C   0  0  0  0  0  0  0  0  0  0  0  0
    1.6253   -3.2135   -1.1845 C   0  0  0  0  0  0  0  0  0  0  0  0
    1.1773   -1.9177   -0.5720 C   0  0  0  0  0  0  0  0  0  0  0  0
   -1.4772    2.4384    5.5490 C   0  0  0  0  0  0  0  0  0  0  0  0
   -0.9512    0.0655    5.8334 C   0  0  0  0  0  0  0  0  0  0  0  0
    2.0750   -5.7298   -2.5299 C   0  0  0  0  0  0  0  0  0  0  0  0
    3.5654   -4.5029   -4.0765 C   0  0  0  0  0  0  0  0  0  0  0  0
  1  2  1  0  0  0  0
  1 10  1  0  0  0  0
  1 16  1  0  0  0  0
  2  4  2  0  0  0  0
  2  9  1  0  0  0  0
  4  6  1  0  0  0  0
  6  7  2  0  0  0  0
  7  8  1  0  0  0  0
  8  9  2  0  0  0  0
 10 11  2  0  0  0  0
 10 15  1  0  0  0  0
 11 12  1  0  0  0  0
 12 13  2  0  0  0  0
 13  3  1  0  0  0  0
 13 14  1  0  0  0  0
 14 15  2  0  0  0  0
 16 17  2  0  0  0  0
 16 21  1  0  0  0  0
 17 18  1  0  0  0  0
 18 19  2  0  0  0  0
 19  5  1  0  0  0  0
 19 20  1  0  0  0  0
 20 21  2  0  0  0  0
 22  3  1  0  0  0  0
 23  3  1  0  0  0  0
 24  5  1  0  0  0  0
 25  5  1  0  0  0  0
M  END
>  <CHROM.1>
10.84193040,23.83224138,6.12243864,-19.71112414,-158.03570024,0.84099879
0.06544739,-0.21061406,-3.09542301,-1.21742611,2.57743341

>  <Name>
1q8n_lig

>  <RI>
0

>  <Rbt.Current_Directory>
/home/itssahil/PROJECTS/Mol_Feturizer/New_Systems/rnas/1q8n

>  <Rbt.Executable>
rbdock ($Id: //depot/dev/client3/rdock/2013.1/src/exe/rbdock.cxx#4 $)

>  <Rbt.Library>
libRbt.so (2013.1, Build901 2013/11/27)

>  <Rbt.Parameter_File>
/export/apps/rDock/src/rDock_2013.1_src/data/scripts/dock_solv.prm

>  <Rbt.Receptor>
prm/pocket_docking_6.prm

>  <SCORE>
-48.9223

>  <SCORE.INTER>
-50.5705

>  <SCORE.INTER.CONST>
1

>  <SCORE.INTER.POLAR>
0

>  <SCORE.INTER.ROT>
5

>  <SCORE.INTER.SOLV>
9.58284

>  <SCORE.INTER.VDW>
-43.8413

>  <SCORE.INTER.norm>
-2.02282

>  <SCORE.INTRA>
1.64825

>  <SCORE.INTRA.DIHEDRAL>
3.24082

>  <SCORE.INTRA.DIHEDRAL.0>
2.1627

>  <SCORE.INTRA.POLAR>
0

>  <SCORE.INTRA.POLAR.0>
0

>  <SCORE.INTRA.REPUL>
0

>  <SCORE.INTRA.REPUL.0>
0

>  <SCORE.INTRA.SOLV>
0.064949

>  <SCORE.INTRA.SOLV.lig_0>
-5.95779

>  <SCORE.INTRA.VDW>
-0.00462978

>  <SCORE.INTRA.VDW.0>
3.81702

>  <SCORE.INTRA.norm>
0.0659302

>  <SCORE.RESTR>
0

>  <SCORE.RESTR.CAVITY>
0

>  <SCORE.RESTR.norm>
0

>  <SCORE.SYSTEM>
0

>  <SCORE.SYSTEM.CONST>
0

>  <SCORE.SYSTEM.DIHEDRAL>
0

>  <SCORE.SYSTEM.SOLV>
0

>  <SCORE.SYSTEM.norm>
0

>  <SCORE.heavy>
25

>  <SCORE.norm>
-1.95689

>  <RMSD>
1.765

$$$$
1q8n_lig
 OpenBabel11021811413D
libRbt.so/2013.1/901 2013/11/27
 25 27  0  0  0  0  0  0  0  0999 V2000
    0.8323    0.7530   -0.6537 C   0  0  0  0  0  0  0  0  0  0  0  0
    0.8611    2.0990   -1.5773 C   0  0  0  0  0  0  0  0  0  0  0  0
   -0.9790    1.2229    4.9961 N   0  0  0  0  0  0  0  0  0  0  0  0
    0.7191    3.3506   -1.0791 C   0  0  0  0  0  0  0  0  0  0  0  0
    2.6025   -4.4700   -2.9987 N   0  0  0  0  0  0  0  0  0  0  0  0
    0.7455    4.5460   -1.9533 C   0  0  0  0  0  0  0  0  0  0  0  0
    0.9168    4.3988   -3.2870 C   0  0  0  0  0  0  0  0  0  0  0  0
    1.0770    3.0735   -3.8383 C   0  0  0  0  0  0  0  0  0  0  0  0
    1.0495    2.0034   -3.0400 C   0  0  0  0  0  0  0  0  0  0  0  0
    0.3343    0.8869    0.8936 C   0  0  0  0  0  0  0  0  0  0  0  0
   -0.4830    1.8880    1.2812 C   0  0  0  0  0  0  0  0  0  0  0  0
   -0.9476    2.0257    2.6894 C   0  0  0  0  0  0  0  0  0  0  0  0
   -0.5532    1.1275    3.6311 C   0  0  0  0  0  0  0  0  0  0  0  0
    0.3387    0.0261    3.2218 C   0  0  0  0  0  0  0  0  0  0  0  0
    0.7489   -0.0820    1.9503 C   0  0  0  0  0  0  0  0  0  0  0  0
    1.2938   -0.7238   -1.2494 C   0  0  0  0  0  0  0  0  0  0  0  0
    1.8562   -0.8261   -2.6404 C   0  0  0  0  0  0  0  0  0  0  0  0
    2.2552   -1.9830   -3.1758 C   0  0  0  0  0  0  0  0  0  0  0  0
    2.1615   -3.2364   -2.4182 C   0  0  0  0  0  0  0  0  0  0  0  0
    1.6580   -3.2012   -1.1669 C   0  0  0  0  0  0  0  0  0  0  0  0
    1.2077   -1.9064   -0.5540 C   0  0  0  0  0  0  0  0  0  0  0  0
   -1.4672    2.4443    5.5602 C   0  0  0  0  0  0  0  0  0  0  0  0
   -0.9269    0.0750    5.8474 C   0  0  0  0  0  0  0  0  0  0  0  0
    2.0751   -5.7203   -2.5327 C   0  0  0  0  0  0  0  0  0  0  0  0
    3.5782   -4.4909   -4.0650 C   0  0  0  0  0  0  0  0  0  0  0  0
  1  2  1  0  0  0  0
  1 10  1  0  0  0  0
  1 16  1  0  0  0  0
  2  4  2  0  0  0  0
  2  9  1  0  0  0  0
  4  6  1  0  0  0  0
  6  7  2  0  0  0  0
  7  8  1  0  0  0  0
  8  9  2  0  0  0  0
 10 11  2  0  0  0  0
 10 15  1  0  0  0  0
 11 12  1  0  0  0  0
 12 13  2  0  0  0  0
 13  3  1  0  0  0  0
 13 14  1  0  0  0  0
 14 15  2  0  0  0  0
 16 17  2  0  0  0  0
 16 21  1  0  0  0  0
 17 18  1  0  0  0  0
 18 19  2  0  0  0  0
 19  5  1  0  0  0  0
 19 20  1  0  0  0  0
 20 21  2  0  0  0  0
 22  3  1  0  0  0  0
 23  3  1  0  0  0  0
 24  5  1  0  0  0  0
 25  5  1  0  0  0  0
M  END
>  <CHROM.1>
11.81673124,24.60615086,4.83002823,-20.46110032,-155.94963385,0.83774161
0.07214527,-0.20511818,-3.11681975,-1.21905544,2.55537898

>  <Name>
1q8n_lig

>  <RI>
0

>  <Rbt.Current_Directory>
/home/itssahil/PROJECTS/Mol_Feturizer/New_Systems/rnas/1q8n

>  <Rbt.Executable>
rbdock ($Id: //depot/dev/client3/rdock/2013.1/src/exe/rbdock.cxx#4 $)

>  <Rbt.Library>
libRbt.so (2013.1, Build901 2013/11/27)

>  <Rbt.Parameter_File>
/export/apps/rDock/src/rDock_2013.1_src/data/scripts/dock_solv.prm

>  <Rbt.Receptor>
prm/pocket_docking_8.prm

>  <SCORE>
-48.9196

>  <SCORE.INTER>
-50.607

>  <SCORE.INTER.CONST>
1

>  <SCORE.INTER.POLAR>
0

>  <SCORE.INTER.ROT>
5

>  <SCORE.INTER.SOLV>
9.56795

>  <SCORE.INTER.VDW>
-43.8607

>  <SCORE.INTER.norm>
-2.02428

>  <SCORE.INTRA>
1.68741

>  <SCORE.INTRA.DIHEDRAL>
3.6841

>  <SCORE.INTRA.DIHEDRAL.0>
2.1627

>  <SCORE.INTRA.POLAR>
0

>  <SCORE.INTRA.POLAR.0>
0

>  <SCORE.INTRA.REPUL>
0

>  <SCORE.INTRA.REPUL.0>
0

>  <SCORE.INTRA.SOLV>
0.0641656

>  <SCORE.INTRA.SOLV.lig_0>
-5.95779

>  <SCORE.INTRA.VDW>
-0.186727

>  <SCORE.INTRA.VDW.0>
3.81702

>  <SCORE.INTRA.norm>
0.0674962

>  <SCORE.RESTR>
0

>  <SCORE.RESTR.CAVITY>
0

>  <SCORE.RESTR.norm>
0

>  <SCORE.SYSTEM>
0

>  <SCORE.SYSTEM.CONST>
0

>  <SCORE.SYSTEM.DIHEDRAL>
0

>  <SCORE.SYSTEM.SOLV>
0

>  <SCORE.SYSTEM.norm>
0

>  <SCORE.heavy>
25

>  <SCORE.norm>
-1.95679

>  <RMSD>
1.766

$$$$
1q8n_lig
 OpenBabel11021811403D
libRbt.so/2013.1/901 2013/11/27
 25 27  0  0  0  0  0  0  0  0999 V2000
    0.8383    0.7502   -0.6597 C   0  0  0  0  0  0  0  0  0  0  0  0
    0.8796    2.0990   -1.5786 C   0  0  0  0  0  0  0  0  0  0  0  0
   -0.9974    1.2119    4.9828 N   0  0  0  0  0  0  0  0  0  0  0  0
    0.7087    3.3475   -1.0817 C   0  0  0  0  0  0  0  0  0  0  0  0
    2.5905   -4.4753   -3.0129 N   0  0  0  0  0  0  0  0  0  0  0  0
    0.7477    4.5457   -1.9516 C   0  0  0  0  0  0  0  0  0  0  0  0
    0.9603    4.4042   -3.2801 C   0  0  0  0  0  0  0  0  0  0  0  0
    1.1517    3.0824   -3.8297 C   0  0  0  0  0  0  0  0  0  0  0  0
    1.1125    2.0098   -3.0353 C   0  0  0  0  0  0  0  0  0  0  0  0
    0.3337    0.8818    0.8857 C   0  0  0  0  0  0  0  0  0  0  0  0
   -0.4749    1.8896    1.2739 C   0  0  0  0  0  0  0  0  0  0  0  0
   -0.9454    2.0255    2.6803 C   0  0  0  0  0  0  0  0  0  0  0  0
   -0.5655    1.1185    3.6196 C   0  0  0  0  0  0  0  0  0  0  0  0
    0.3168    0.0097    3.2095 C   0  0  0  0  0  0  0  0  0  0  0  0
    0.7325   -0.0966    1.9397 C   0  0  0  0  0  0  0  0  0  0  0  0
    1.2940   -0.7273   -1.2581 C   0  0  0  0  0  0  0  0  0  0  0  0
    1.8704   -0.8271   -2.6435 C   0  0  0  0  0  0  0  0  0  0  0  0
    2.2656   -1.9846   -3.1807 C   0  0  0  0  0  0  0  0  0  0  0  0
    2.1534   -3.2410   -2.4308 C   0  0  0  0  0  0  0  0  0  0  0  0
    1.6369   -3.2081   -1.1847 C   0  0  0  0  0  0  0  0  0  0  0  0
    1.1907   -1.9127   -0.5699 C   0  0  0  0  0  0  0  0  0  0  0  0
   -1.4652    2.4382    5.5536 C   0  0  0  0  0  0  0  0  0  0  0  0
   -0.9725    0.0567    5.8256 C   0  0  0  0  0  0  0  0  0  0  0  0
    3.5635   -4.4753   -4.0672 C   0  0  0  0  0  0  0  0  0  0  0  0
    2.0734   -5.7452   -2.5554 C   0  0  0  0  0  0  0  0  0  0  0  0
  1  2  1  0  0  0  0
  1 10  1  0  0  0  0
  1 16  1  0  0  0  0
  2  4  2  0  0  0  0
  2  9  1  0  0  0  0
  4  6  1  0  0  0  0
  6  7  2  0  0  0  0
  7  8  1  0  0  0  0
  8  9  2  0  0  0  0
 10 11  2  0  0  0  0
 10 15  1  0  0  0  0
 11 12  1  0  0  0  0
 12 13  2  0  0  0  0
 13  3  1  0  0  0  0
 13 14  1  0  0  0  0
 14 15  2  0  0  0  0
 16 17  2  0  0  0  0
 16 21  1  0  0  0  0
 17 18  1  0  0  0  0
 18 19  2  0  0  0  0
 19  5  1  0  0  0  0
 19 20  1  0  0  0  0
 20 21  2  0  0  0  0
 22  3  1  0  0  0  0
 23  3  1  0  0  0  0
 24  5  1  0  0  0  0
 25  5  1  0  0  0  0
M  END
>  <CHROM.1>
10.08180750,24.31912403,5.20883445,-20.98767211,23.28648540,0.83904458,0.06788460
-0.21289300,-3.09287999,-1.21740663,2.58119501

>  <Name>
1q8n_lig

>  <RI>
0

>  <Rbt.Current_Directory>
/home/itssahil/PROJECTS/Mol_Feturizer/New_Systems/rnas/1q8n

>  <Rbt.Executable>
rbdock ($Id: //depot/dev/client3/rdock/2013.1/src/exe/rbdock.cxx#4 $)

>  <Rbt.Library>
libRbt.so (2013.1, Build901 2013/11/27)

>  <Rbt.Parameter_File>
/export/apps/rDock/src/rDock_2013.1_src/data/scripts/dock_solv.prm

>  <Rbt.Receptor>
prm/blind_docking_40.prm

>  <SCORE>
-48.9832

>  <SCORE.INTER>
-50.6712

>  <SCORE.INTER.CONST>
1

>  <SCORE.INTER.POLAR>
0

>  <SCORE.INTER.ROT>
5

>  <SCORE.INTER.SOLV>
9.59857

>  <SCORE.INTER.VDW>
-43.9137

>  <SCORE.INTER.norm>
-2.02685

>  <SCORE.INTRA>
1.68805

>  <SCORE.INTRA.DIHEDRAL>
3.63649

>  <SCORE.INTRA.DIHEDRAL.0>
2.1627

>  <SCORE.INTRA.POLAR>
0

>  <SCORE.INTRA.POLAR.0>
0

>  <SCORE.INTRA.REPUL>
0

>  <SCORE.INTRA.REPUL.0>
0

>  <SCORE.INTRA.SOLV>
0.0651384

>  <SCORE.INTRA.SOLV.lig_0>
-5.95779

>  <SCORE.INTRA.VDW>
-0.162768

>  <SCORE.INTRA.VDW.0>
3.81702

>  <SCORE.INTRA.norm>
0.0675219

>  <SCORE.RESTR>
0

>  <SCORE.RESTR.CAVITY>
0

>  <SCORE.RESTR.norm>
0

>  <SCORE.SYSTEM>
0

>  <SCORE.SYSTEM.CONST>
0

>  <SCORE.SYSTEM.DIHEDRAL>
0

>  <SCORE.SYSTEM.SOLV>
0

>  <SCORE.SYSTEM.norm>
0

>  <SCORE.heavy>
25

>  <SCORE.norm>
-1.95933

>  <RMSD>
1.768

$$$$
1q8n_lig
 OpenBabel11021811403D
libRbt.so/2013.1/901 2013/11/27
 25 27  0  0  0  0  0  0  0  0999 V2000
    0.8300    0.7970   -0.6358 C   0  0  0  0  0  0  0  0  0  0  0  0
    0.8795    2.1488   -1.5500 C   0  0  0  0  0  0  0  0  0  0  0  0
   -1.0460    1.2425    4.9948 N   0  0  0  0  0  0  0  0  0  0  0  0
    0.6996    3.3954   -1.0514 C   0  0  0  0  0  0  0  0  0  0  0  0
    2.5962   -4.4227   -2.9912 N   0  0  0  0  0  0  0  0  0  0  0  0
    0.7466    4.5963   -1.9171 C   0  0  0  0  0  0  0  0  0  0  0  0
    0.9761    4.4595   -3.2432 C   0  0  0  0  0  0  0  0  0  0  0  0
    1.1773    3.1398   -3.7945 C   0  0  0  0  0  0  0  0  0  0  0  0
    1.1307    2.0647   -3.0039 C   0  0  0  0  0  0  0  0  0  0  0  0
    0.3144    0.9242    0.9063 C   0  0  0  0  0  0  0  0  0  0  0  0
   -0.4873    1.9377    1.2944 C   0  0  0  0  0  0  0  0  0  0  0  0
   -0.9676    2.0696    2.6978 C   0  0  0  0  0  0  0  0  0  0  0  0
   -0.6041    1.1532    3.6345 C   0  0  0  0  0  0  0  0  0  0  0  0
    0.2704    0.0382    3.2245 C   0  0  0  0  0  0  0  0  0  0  0  0
    0.6951   -0.0644    1.9574 C   0  0  0  0  0  0  0  0  0  0  0  0
    1.2881   -0.6791   -1.2358 C   0  0  0  0  0  0  0  0  0  0  0  0
    1.8949   -0.7723   -2.6086 C   0  0  0  0  0  0  0  0  0  0  0  0
    2.2936   -1.9283   -3.1461 C   0  0  0  0  0  0  0  0  0  0  0  0
    2.1552   -3.1898   -2.4091 C   0  0  0  0  0  0  0  0  0  0  0  0
    1.6110   -3.1628   -1.1747 C   0  0  0  0  0  0  0  0  0  0  0  0
    1.1607   -1.8691   -0.5597 C   0  0  0  0  0  0  0  0  0  0  0  0
   -1.5427    2.4609    5.5581 C   0  0  0  0  0  0  0  0  0  0  0  0
   -1.0018    0.0913    5.8421 C   0  0  0  0  0  0  0  0  0  0  0  0
    3.5713   -4.4198   -4.0437 C   0  0  0  0  0  0  0  0  0  0  0  0
    2.0812   -5.6941   -2.5356 C   0  0  0  0  0  0  0  0  0  0  0  0
  1  2  1  0  0  0  0
  1 10  1  0  0  0  0
  1 16  1  0  0  0  0
  2  4  2  0  0  0  0
  2  9  1  0  0  0  0
  4  6  1  0  0  0  0
  6  7  2  0  0  0  0
  7  8  1  0  0  0  0
  8  9  2  0  0  0  0
 10 11  2  0  0  0  0
 10 15  1  0  0  0  0
 11 12  1  0  0  0  0
 12 13  2  0  0  0  0
 13  3  1  0  0  0  0
 13 14  1  0  0  0  0
 14 15  2  0  0  0  0
 16 17  2  0  0  0  0
 16 21  1  0  0  0  0
 17 18  1  0  0  0  0
 18 19  2  0  0  0  0
 19  5  1  0  0  0  0
 19 20  1  0  0  0  0
 20 21  2  0  0  0  0
 22  3  1  0  0  0  0
 23  3  1  0  0  0  0
 24  5  1  0  0  0  0
 25  5  1  0  0  0  0
M  END
>  <CHROM.1>
9.72146823,23.79420782,6.19351814,-19.12599865,21.91556965,0.82765240,0.11333340
-0.19071072,-3.07884568,-1.21121167,2.59744391

>  <Name>
1q8n_lig

>  <RI>
0

>  <Rbt.Current_Directory>
/home/itssahil/PROJECTS/Mol_Feturizer/New_Systems/rnas/1q8n

>  <Rbt.Executable>
rbdock ($Id: //depot/dev/client3/rdock/2013.1/src/exe/rbdock.cxx#4 $)

>  <Rbt.Library>
libRbt.so (2013.1, Build901 2013/11/27)

>  <Rbt.Parameter_File>
/export/apps/rDock/src/rDock_2013.1_src/data/scripts/dock_solv.prm

>  <Rbt.Receptor>
prm/pocket_docking_5.prm

>  <SCORE>
-48.8687

>  <SCORE.INTER>
-50.4876

>  <SCORE.INTER.CONST>
1

>  <SCORE.INTER.POLAR>
0

>  <SCORE.INTER.ROT>
5

>  <SCORE.INTER.SOLV>
9.68935

>  <SCORE.INTER.VDW>
-43.8215

>  <SCORE.INTER.norm>
-2.0195

>  <SCORE.INTRA>
1.61884

>  <SCORE.INTRA.DIHEDRAL>
3.15132

>  <SCORE.INTRA.DIHEDRAL.0>
2.1627

>  <SCORE.INTRA.POLAR>
0

>  <SCORE.INTRA.POLAR.0>
0

>  <SCORE.INTRA.REPUL>
0

>  <SCORE.INTRA.REPUL.0>
0

>  <SCORE.INTRA.SOLV>
0.065491

>  <SCORE.INTRA.SOLV.lig_0>
-5.95779

>  <SCORE.INTRA.VDW>
0.0104351

>  <SCORE.INTRA.VDW.0>
3.81702

>  <SCORE.INTRA.norm>
0.0647536

>  <SCORE.RESTR>
0

>  <SCORE.RESTR.CAVITY>
0

>  <SCORE.RESTR.norm>
0

>  <SCORE.SYSTEM>
0

>  <SCORE.SYSTEM.CONST>
0

>  <SCORE.SYSTEM.DIHEDRAL>
0

>  <SCORE.SYSTEM.SOLV>
0

>  <SCORE.SYSTEM.norm>
0

>  <SCORE.heavy>
25

>  <SCORE.norm>
-1.95475

>  <RMSD>
1.768

$$$$
1q8n_lig
 OpenBabel11021811403D
libRbt.so/2013.1/901 2013/11/27
 25 27  0  0  0  0  0  0  0  0999 V2000
    0.8363    0.7349   -0.6695 C   0  0  0  0  0  0  0  0  0  0  0  0
    0.8689    2.0852   -1.5867 C   0  0  0  0  0  0  0  0  0  0  0  0
   -0.9631    1.1849    4.9857 N   0  0  0  0  0  0  0  0  0  0  0  0
    0.7093    3.3334   -1.0853 C   0  0  0  0  0  0  0  0  0  0  0  0
    2.5846   -4.4836   -3.0408 N   0  0  0  0  0  0  0  0  0  0  0  0
    0.7398    4.5329   -1.9538 C   0  0  0  0  0  0  0  0  0  0  0  0
    0.9329    4.3929   -3.2854 C   0  0  0  0  0  0  0  0  0  0  0  0
    1.1120    3.0714   -3.8398 C   0  0  0  0  0  0  0  0  0  0  0  0
    1.0806    1.9976   -3.0467 C   0  0  0  0  0  0  0  0  0  0  0  0
    0.3417    0.8633    0.8794 C   0  0  0  0  0  0  0  0  0  0  0  0
   -0.4597    1.8736    1.2761 C   0  0  0  0  0  0  0  0  0  0  0  0
   -0.9211    2.0066    2.6859 C   0  0  0  0  0  0  0  0  0  0  0  0
   -0.5398    1.0944    3.6196 C   0  0  0  0  0  0  0  0  0  0  0  0
    0.3346   -0.0171    3.2001 C   0  0  0  0  0  0  0  0  0  0  0  0
    0.7421   -0.1208    1.9274 C   0  0  0  0  0  0  0  0  0  0  0  0
    1.2908   -0.7408   -1.2731 C   0  0  0  0  0  0  0  0  0  0  0  0
    1.8682   -0.8361   -2.6584 C   0  0  0  0  0  0  0  0  0  0  0  0
    2.2625   -1.9920   -3.1996 C   0  0  0  0  0  0  0  0  0  0  0  0
    2.1484   -3.2511   -2.4544 C   0  0  0  0  0  0  0  0  0  0  0  0
    1.6310   -3.2222   -1.2086 C   0  0  0  0  0  0  0  0  0  0  0  0
    1.1858   -1.9287   -0.5894 C   0  0  0  0  0  0  0  0  0  0  0  0
   -0.8848    0.0740    5.8848 C   0  0  0  0  0  0  0  0  0  0  0  0
   -1.4849    2.4144    5.4967 C   0  0  0  0  0  0  0  0  0  0  0  0
    3.5629   -4.4812   -4.0903 C   0  0  0  0  0  0  0  0  0  0  0  0
    2.0614   -5.7543   -2.5925 C   0  0  0  0  0  0  0  0  0  0  0  0
  1  2  1  0  0  0  0
  1 10  1  0  0  0  0
  1 16  1  0  0  0  0
  2  4  2  0  0  0  0
  2  9  1  0  0  0  0
  4  6  1  0  0  0  0
  6  7  2  0  0  0  0
  7  8  1  0  0  0  0
  8  9  2  0  0  0  0
 10 11  2  0  0  0  0
 10 15  1  0  0  0  0
 11 12  1  0  0  0  0
 12 13  2  0  0  0  0
 13  3  1  0  0  0  0
 13 14  1  0  0  0  0
 14 15  2  0  0  0  0
 16 17  2  0  0  0  0
 16 21  1  0  0  0  0
 17 18  1  0  0  0  0
 18 19  2  0  0  0  0
 19  5  1  0  0  0  0
 19 20  1  0  0  0  0
 20 21  2  0  0  0  0
 22  3  1  0  0  0  0
 23  3  1  0  0  0  0
 24  5  1  0  0  0  0
 25  5  1  0  0  0  0
M  END
>  <CHROM.1>
10.61725237,23.91262824,5.68369500,162.63672045,23.56692284,0.84104833,0.05427707
-0.22376291,-3.10882150,-1.22156002,2.56625177

>  <Name>
1q8n_lig

>  <RI>
0

>  <Rbt.Current_Directory>
/home/itssahil/PROJECTS/Mol_Feturizer/New_Systems/rnas/1q8n

>  <Rbt.Executable>
rbdock ($Id: //depot/dev/client3/rdock/2013.1/src/exe/rbdock.cxx#4 $)

>  <Rbt.Library>
libRbt.so (2013.1, Build901 2013/11/27)

>  <Rbt.Parameter_File>
/export/apps/rDock/src/rDock_2013.1_src/data/scripts/dock_solv.prm

>  <Rbt.Receptor>
prm/blind_docking_100.prm

>  <SCORE>
-49.0012

>  <SCORE.INTER>
-50.6128

>  <SCORE.INTER.CONST>
1

>  <SCORE.INTER.POLAR>
0

>  <SCORE.INTER.ROT>
5

>  <SCORE.INTER.SOLV>
9.51747

>  <SCORE.INTER.VDW>
-43.8477

>  <SCORE.INTER.norm>
-2.02451

>  <SCORE.INTRA>
1.61166

>  <SCORE.INTRA.DIHEDRAL>
3.18018

>  <SCORE.INTRA.DIHEDRAL.0>
2.1627

>  <SCORE.INTRA.POLAR>
0

>  <SCORE.INTRA.POLAR.0>
0

>  <SCORE.INTRA.REPUL>
0

>  <SCORE.INTRA.REPUL.0>
0

>  <SCORE.INTRA.SOLV>
0.0651004

>  <SCORE.INTRA.SOLV.lig_0>
-5.95779

>  <SCORE.INTRA.VDW>
-0.0109793

>  <SCORE.INTRA.VDW.0>
3.81702

>  <SCORE.INTRA.norm>
0.0644664

>  <SCORE.RESTR>
0

>  <SCORE.RESTR.CAVITY>
0

>  <SCORE.RESTR.norm>
0

>  <SCORE.SYSTEM>
0

>  <SCORE.SYSTEM.CONST>
0

>  <SCORE.SYSTEM.DIHEDRAL>
0

>  <SCORE.SYSTEM.SOLV>
0

>  <SCORE.SYSTEM.norm>
0

>  <SCORE.heavy>
25

>  <SCORE.norm>
-1.96005

>  <RMSD>
1.770

$$$$
1q8n_lig
 OpenBabel11021811403D
libRbt.so/2013.1/901 2013/11/27
 25 27  0  0  0  0  0  0  0  0999 V2000
    0.8539    0.7621   -0.6512 C   0  0  0  0  0  0  0  0  0  0  0  0
    0.8862    2.1126   -1.5680 C   0  0  0  0  0  0  0  0  0  0  0  0
   -1.0021    1.1998    4.9867 N   0  0  0  0  0  0  0  0  0  0  0  0
    0.7143    3.3598   -1.0681 C   0  0  0  0  0  0  0  0  0  0  0  0
    2.6633   -4.4442   -3.0034 N   0  0  0  0  0  0  0  0  0  0  0  0
    0.7450    4.5595   -1.9362 C   0  0  0  0  0  0  0  0  0  0  0  0
    0.9509    4.4209   -3.2660 C   0  0  0  0  0  0  0  0  0  0  0  0
    1.1433    3.1006   -3.8189 C   0  0  0  0  0  0  0  0  0  0  0  0
    1.1115    2.0265   -3.0261 C   0  0  0  0  0  0  0  0  0  0  0  0
    0.3437    0.8872    0.8929 C   0  0  0  0  0  0  0  0  0  0  0  0
   -0.4770    1.8858    1.2796 C   0  0  0  0  0  0  0  0  0  0  0  0
   -0.9528    2.0156    2.6848 C   0  0  0  0  0  0  0  0  0  0  0  0
   -0.5654    1.1121    3.6246 C   0  0  0  0  0  0  0  0  0  0  0  0
    0.3300    0.0133    3.2161 C   0  0  0  0  0  0  0  0  0  0  0  0
    0.7503   -0.0875    1.9474 C   0  0  0  0  0  0  0  0  0  0  0  0
    1.3240   -0.7105   -1.2504 C   0  0  0  0  0  0  0  0  0  0  0  0
    1.9361   -0.7988   -2.6212 C   0  0  0  0  0  0  0  0  0  0  0  0
    2.3444   -1.9518   -3.1580 C   0  0  0  0  0  0  0  0  0  0  0  0
    2.2120   -3.2147   -2.4221 C   0  0  0  0  0  0  0  0  0  0  0  0
    1.6634   -3.1921   -1.1896 C   0  0  0  0  0  0  0  0  0  0  0  0
    1.2023   -1.9017   -0.5754 C   0  0  0  0  0  0  0  0  0  0  0  0
   -0.9711    0.0761    5.8726 C   0  0  0  0  0  0  0  0  0  0  0  0
   -1.4896    2.4395    5.5069 C   0  0  0  0  0  0  0  0  0  0  0  0
    2.1019   -5.6951   -2.5811 C   0  0  0  0  0  0  0  0  0  0  0  0
    3.6837   -4.4600   -4.0272 C   0  0  0  0  0  0  0  0  0  0  0  0
  1  2  1  0  0  0  0
  1 10  1  0  0  0  0
  1 16  1  0  0  0  0
  2  4  2  0  0  0  0
  2  9  1  0  0  0  0
  4  6  1  0  0  0  0
  6  7  2  0  0  0  0
  7  8  1  0  0  0  0
  8  9  2  0  0  0  0
 10 11  2  0  0  0  0
 10 15  1  0  0  0  0
 11 12  1  0  0  0  0
 12 13  2  0  0  0  0
 13  3  1  0  0  0  0
 13 14  1  0  0  0  0
 14 15  2  0  0  0  0
 16 17  2  0  0  0  0
 16 21  1  0  0  0  0
 17 18  1  0  0  0  0
 18 19  2  0  0  0  0
 19  5  1  0  0  0  0
 19 20  1  0  0  0  0
 20 21  2  0  0  0  0
 22  3  1  0  0  0  0
 23  3  1  0  0  0  0
 24  5  1  0  0  0  0
 25  5  1  0  0  0  0
M  END
>  <CHROM.1>
10.65693202,24.46028948,6.69213276,159.71562288,-155.52598117,0.85951547
0.08160077,-0.20508446,-3.10654925,-1.20964484,2.56869496

>  <Name>
1q8n_lig

>  <RI>
0

>  <Rbt.Current_Directory>
/home/itssahil/PROJECTS/Mol_Feturizer/New_Systems/rnas/1q8n

>  <Rbt.Executable>
rbdock ($Id: //depot/dev/client3/rdock/2013.1/src/exe/rbdock.cxx#4 $)

>  <Rbt.Library>
libRbt.so (2013.1, Build901 2013/11/27)

>  <Rbt.Parameter_File>
/export/apps/rDock/src/rDock_2013.1_src/data/scripts/dock_solv.prm

>  <Rbt.Receptor>
prm/blind_docking_40.prm

>  <SCORE>
-48.8723

>  <SCORE.INTER>
-50.5834

>  <SCORE.INTER.CONST>
1

>  <SCORE.INTER.POLAR>
0

>  <SCORE.INTER.ROT>
5

>  <SCORE.INTER.SOLV>
9.64597

>  <SCORE.INTER.VDW>
-43.8709

>  <SCORE.INTER.norm>
-2.02334

>  <SCORE.INTRA>
1.71109

>  <SCORE.INTRA.DIHEDRAL>
3.72909

>  <SCORE.INTRA.DIHEDRAL.0>
2.1627

>  <SCORE.INTRA.POLAR>
0

>  <SCORE.INTRA.POLAR.0>
0

>  <SCORE.INTRA.REPUL>
0

>  <SCORE.INTRA.REPUL.0>
0

>  <SCORE.INTRA.SOLV>
0.064214

>  <SCORE.INTRA.SOLV.lig_0>
-5.95779

>  <SCORE.INTRA.VDW>
-0.185559

>  <SCORE.INTRA.VDW.0>
3.81702

>  <SCORE.INTRA.norm>
0.0684437

>  <SCORE.RESTR>
0

>  <SCORE.RESTR.CAVITY>
0

>  <SCORE.RESTR.norm>
0

>  <SCORE.SYSTEM>
0

>  <SCORE.SYSTEM.CONST>
0

>  <SCORE.SYSTEM.DIHEDRAL>
0

>  <SCORE.SYSTEM.SOLV>
0

>  <SCORE.SYSTEM.norm>
0

>  <SCORE.heavy>
25

>  <SCORE.norm>
-1.95489

>  <RMSD>
1.771

$$$$
1q8n_lig
 OpenBabel11021811403D
libRbt.so/2013.1/901 2013/11/27
 25 27  0  0  0  0  0  0  0  0999 V2000
    0.6321    0.9130   -0.4955 C   0  0  0  0  0  0  0  0  0  0  0  0
    0.7682    2.1484   -1.5542 C   0  0  0  0  0  0  0  0  0  0  0  0
    2.1843   -4.5346   -2.3218 N   0  0  0  0  0  0  0  0  0  0  0  0
    0.9687    1.9757   -2.8826 C   0  0  0  0  0  0  0  0  0  0  0  0
   -1.2279    1.5729    5.1629 N   0  0  0  0  0  0  0  0  0  0  0  0
    1.0926    3.1248   -3.8089 C   0  0  0  0  0  0  0  0  0  0  0  0
    1.0036    4.3866   -3.3292 C   0  0  0  0  0  0  0  0  0  0  0  0
    0.7833    4.5931   -1.9169 C   0  0  0  0  0  0  0  0  0  0  0  0
    0.6751    3.5489   -1.0916 C   0  0  0  0  0  0  0  0  0  0  0  0
    1.0588   -0.5812   -0.9909 C   0  0  0  0  0  0  0  0  0  0  0  0
    1.2395   -1.5856   -0.1084 C   0  0  0  0  0  0  0  0  0  0  0  0
    1.6291   -2.9558   -0.5427 C   0  0  0  0  0  0  0  0  0  0  0  0
    1.8115   -3.2295   -1.8622 C   0  0  0  0  0  0  0  0  0  0  0  0
    1.6153   -2.1418   -2.8391 C   0  0  0  0  0  0  0  0  0  0  0  0
    1.2665   -0.9137   -2.4309 C   0  0  0  0  0  0  0  0  0  0  0  0
    0.0757    1.1450    1.0490 C   0  0  0  0  0  0  0  0  0  0  0  0
    0.4506    0.1719    2.1325 C   0  0  0  0  0  0  0  0  0  0  0  0
    0.0440    0.3065    3.3978 C   0  0  0  0  0  0  0  0  0  0  0  0
   -0.8065    1.4326    3.8005 C   0  0  0  0  0  0  0  0  0  0  0  0
   -1.1771    2.3317    2.8653 C   0  0  0  0  0  0  0  0  0  0  0  0
   -0.7250    2.1915    1.4402 C   0  0  0  0  0  0  0  0  0  0  0  0
    2.9153   -4.7371   -3.5356 C   0  0  0  0  0  0  0  0  0  0  0  0
    1.8286   -5.6931   -1.5624 C   0  0  0  0  0  0  0  0  0  0  0  0
   -1.0151    0.5085    6.1011 C   0  0  0  0  0  0  0  0  0  0  0  0
   -1.8683    2.7819    5.6295 C   0  0  0  0  0  0  0  0  0  0  0  0
  1  2  1  0  0  0  0
  1 10  1  0  0  0  0
  1 16  1  0  0  0  0
  2  4  2  0  0  0  0
  2  9  1  0  0  0  0
  4  6  1  0  0  0  0
  6  7  2  0  0  0  0
  7  8  1  0  0  0  0
  8  9  2  0  0  0  0
 10 11  2  0  0  0  0
 10 15  1  0  0  0  0
 11 12  1  0  0  0  0
 12 13  2  0  0  0  0
 13  3  1  0  0  0  0
 13 14  1  0  0  0  0
 14 15  2  0  0  0  0
 16 17  2  0  0  0  0
 16 21  1  0  0  0  0
 17 18  1  0  0  0  0
 18 19  2  0  0  0  0
 19  5  1  0  0  0  0
 19 20  1  0  0  0  0
 20 21  2  0  0  0  0
 22  3  1  0  0  0  0
 23  3  1  0  0  0  0
 24  5  1  0  0  0  0
 25  5  1  0  0  0  0
M  END
>  <CHROM.1>
13.03118878,165.98115375,-156.08071855,-152.65575681,-10.40068130,0.60504362
0.21113642,0.05966498,-0.11091986,1.22796722,-0.54577074

>  <Name>
1q8n_lig

>  <RI>
0

>  <Rbt.Current_Directory>
/home/itssahil/PROJECTS/Mol_Feturizer/New_Systems/rnas/1q8n

>  <Rbt.Executable>
rbdock ($Id: //depot/dev/client3/rdock/2013.1/src/exe/rbdock.cxx#4 $)

>  <Rbt.Library>
libRbt.so (2013.1, Build901 2013/11/27)

>  <Rbt.Parameter_File>
/export/apps/rDock/src/rDock_2013.1_src/data/scripts/dock_solv.prm

>  <Rbt.Receptor>
prm/pocket_docking_3.prm

>  <SCORE>
-47.9173

>  <SCORE.INTER>
-49.7434

>  <SCORE.INTER.CONST>
1

>  <SCORE.INTER.POLAR>
0

>  <SCORE.INTER.ROT>
5

>  <SCORE.INTER.SOLV>
9.69419

>  <SCORE.INTER.VDW>
-43.327

>  <SCORE.INTER.norm>
-1.98974

>  <SCORE.INTRA>
1.8119

>  <SCORE.INTRA.DIHEDRAL>
3.11747

>  <SCORE.INTRA.DIHEDRAL.0>
2.1627

>  <SCORE.INTRA.POLAR>
0

>  <SCORE.INTRA.POLAR.0>
0

>  <SCORE.INTRA.REPUL>
0

>  <SCORE.INTRA.REPUL.0>
0

>  <SCORE.INTRA.SOLV>
0.0633654

>  <SCORE.INTRA.SOLV.lig_0>
-5.95779

>  <SCORE.INTRA.VDW>
0.221486

>  <SCORE.INTRA.VDW.0>
3.81702

>  <SCORE.INTRA.norm>
0.0724761

>  <SCORE.RESTR>
0.0142315

>  <SCORE.RESTR.CAVITY>
0.0142315

>  <SCORE.RESTR.norm>
0.000569259

>  <SCORE.SYSTEM>
0

>  <SCORE.SYSTEM.CONST>
0

>  <SCORE.SYSTEM.DIHEDRAL>
0

>  <SCORE.SYSTEM.SOLV>
0

>  <SCORE.SYSTEM.norm>
0

>  <SCORE.heavy>
25

>  <SCORE.norm>
-1.91669

>  <RMSD>
1.771

$$$$
1q8n_lig
 OpenBabel11021811403D
libRbt.so/2013.1/901 2013/11/27
 25 27  0  0  0  0  0  0  0  0999 V2000
    0.8324    0.7339   -0.6420 C   0  0  0  0  0  0  0  0  0  0  0  0
    0.8673    2.0833   -1.5603 C   0  0  0  0  0  0  0  0  0  0  0  0
   -1.0029    1.1849    5.0016 N   0  0  0  0  0  0  0  0  0  0  0  0
    0.7130    3.3324   -1.0595 C   0  0  0  0  0  0  0  0  0  0  0  0
    2.6077   -4.4827   -2.9975 N   0  0  0  0  0  0  0  0  0  0  0  0
    0.7455    4.5311   -1.9290 C   0  0  0  0  0  0  0  0  0  0  0  0
    0.9351    4.3896   -3.2609 C   0  0  0  0  0  0  0  0  0  0  0  0
    1.1085    3.0671   -3.8147 C   0  0  0  0  0  0  0  0  0  0  0  0
    1.0754    1.9940   -3.0207 C   0  0  0  0  0  0  0  0  0  0  0  0
    0.3279    0.8626    0.9037 C   0  0  0  0  0  0  0  0  0  0  0  0
   -0.4745    1.8740    1.2956 C   0  0  0  0  0  0  0  0  0  0  0  0
   -0.9447    2.0073    2.7024 C   0  0  0  0  0  0  0  0  0  0  0  0
   -0.5709    1.0942    3.6382 C   0  0  0  0  0  0  0  0  0  0  0  0
    0.3044   -0.0186    3.2241 C   0  0  0  0  0  0  0  0  0  0  0  0
    0.7200   -0.1225    1.9540 C   0  0  0  0  0  0  0  0  0  0  0  0
    1.2941   -0.7414   -1.2413 C   0  0  0  0  0  0  0  0  0  0  0  0
    1.8800   -0.8366   -2.6230 C   0  0  0  0  0  0  0  0  0  0  0  0
    2.2805   -1.9920   -3.1607 C   0  0  0  0  0  0  0  0  0  0  0  0
    2.1649   -3.2507   -2.4149 C   0  0  0  0  0  0  0  0  0  0  0  0
    1.6399   -3.2218   -1.1723 C   0  0  0  0  0  0  0  0  0  0  0  0
    1.1879   -1.9288   -0.5571 C   0  0  0  0  0  0  0  0  0  0  0  0
   -0.9333    0.0733    5.9005 C   0  0  0  0  0  0  0  0  0  0  0  0
   -1.5248    2.4155    5.5100 C   0  0  0  0  0  0  0  0  0  0  0  0
    2.0763   -5.7340   -2.5388 C   0  0  0  0  0  0  0  0  0  0  0  0
    3.5891   -4.5009   -4.0586 C   0  0  0  0  0  0  0  0  0  0  0  0
  1  2  1  0  0  0  0
  1 10  1  0  0  0  0
  1 16  1  0  0  0  0
  2  4  2  0  0  0  0
  2  9  1  0  0  0  0
  4  6  1  0  0  0  0
  6  7  2  0  0  0  0
  7  8  1  0  0  0  0
  8  9  2  0  0  0  0
 10 11  2  0  0  0  0
 10 15  1  0  0  0  0
 11 12  1  0  0  0  0
 12 13  2  0  0  0  0
 13  3  1  0  0  0  0
 13 14  1  0  0  0  0
 14 15  2  0  0  0  0
 16 17  2  0  0  0  0
 16 21  1  0  0  0  0
 17 18  1  0  0  0  0
 18 19  2  0  0  0  0
 19  5  1  0  0  0  0
 19 20  1  0  0  0  0
 20 21  2  0  0  0  0
 22  3  1  0  0  0  0
 23  3  1  0  0  0  0
 24  5  1  0  0  0  0
 25  5  1  0  0  0  0
M  END
>  <CHROM.1>
11.19920152,23.67195725,5.67726526,162.57526529,-156.75459085,0.83521571
0.05357229,-0.19585612,-3.10483273,-1.21550561,2.56929435

>  <Name>
1q8n_lig

>  <RI>
0

>  <Rbt.Current_Directory>
/home/itssahil/PROJECTS/Mol_Feturizer/New_Systems/rnas/1q8n

>  <Rbt.Executable>
rbdock ($Id: //depot/dev/client3/rdock/2013.1/src/exe/rbdock.cxx#4 $)

>  <Rbt.Library>
libRbt.so (2013.1, Build901 2013/11/27)

>  <Rbt.Parameter_File>
/export/apps/rDock/src/rDock_2013.1_src/data/scripts/dock_solv.prm

>  <Rbt.Receptor>
prm/pocket_docking_5.prm

>  <SCORE>
-48.9774

>  <SCORE.INTER>
-50.6189

>  <SCORE.INTER.CONST>
1

>  <SCORE.INTER.POLAR>
0

>  <SCORE.INTER.ROT>
5

>  <SCORE.INTER.SOLV>
9.54054

>  <SCORE.INTER.VDW>
-43.8595

>  <SCORE.INTER.norm>
-2.02476

>  <SCORE.INTRA>
1.64155

>  <SCORE.INTRA.DIHEDRAL>
3.13566

>  <SCORE.INTRA.DIHEDRAL.0>
2.1627

>  <SCORE.INTRA.POLAR>
0

>  <SCORE.INTRA.POLAR.0>
0

>  <SCORE.INTRA.REPUL>
0

>  <SCORE.INTRA.REPUL.0>
0

>  <SCORE.INTRA.SOLV>
0.0650213

>  <SCORE.INTRA.SOLV.lig_0>
-5.95779

>  <SCORE.INTRA.VDW>
0.0412064

>  <SCORE.INTRA.VDW.0>
3.81702

>  <SCORE.INTRA.norm>
0.0656619

>  <SCORE.RESTR>
0

>  <SCORE.RESTR.CAVITY>
0

>  <SCORE.RESTR.norm>
0

>  <SCORE.SYSTEM>
0

>  <SCORE.SYSTEM.CONST>
0

>  <SCORE.SYSTEM.DIHEDRAL>
0

>  <SCORE.SYSTEM.SOLV>
0

>  <SCORE.SYSTEM.norm>
0

>  <SCORE.heavy>
25

>  <SCORE.norm>
-1.9591

>  <RMSD>
1.779

$$$$
1q8n_lig
 OpenBabel11021811413D
libRbt.so/2013.1/901 2013/11/27
 25 27  0  0  0  0  0  0  0  0999 V2000
    0.8724    0.7728   -0.8238 C   0  0  0  0  0  0  0  0  0  0  0  0
    0.8915    2.0877   -1.7913 C   0  0  0  0  0  0  0  0  0  0  0  0
    2.6854   -4.4166   -3.1053 N   0  0  0  0  0  0  0  0  0  0  0  0
    1.0351    2.0237   -3.1368 C   0  0  0  0  0  0  0  0  0  0  0  0
   -0.7994    0.9006    4.9296 N   0  0  0  0  0  0  0  0  0  0  0  0
    1.0529    3.2425   -3.9784 C   0  0  0  0  0  0  0  0  0  0  0  0
    0.9218    4.4589   -3.4013 C   0  0  0  0  0  0  0  0  0  0  0  0
    0.7608    4.5494   -1.9689 C   0  0  0  0  0  0  0  0  0  0  0  0
    0.7481    3.4434   -1.2207 C   0  0  0  0  0  0  0  0  0  0  0  0
    1.3686   -0.6517   -1.4442 C   0  0  0  0  0  0  0  0  0  0  0  0
    1.1670   -1.8105   -0.7833 C   0  0  0  0  0  0  0  0  0  0  0  0
    1.6132   -3.1201   -1.3345 C   0  0  0  0  0  0  0  0  0  0  0  0
    2.2422   -3.1771   -2.5388 C   0  0  0  0  0  0  0  0  0  0  0  0
    2.4678   -1.9184   -3.2741 C   0  0  0  0  0  0  0  0  0  0  0  0
    2.0613   -0.7480   -2.7626 C   0  0  0  0  0  0  0  0  0  0  0  0
    0.3648    0.8567    0.7523 C   0  0  0  0  0  0  0  0  0  0  0  0
    0.8305   -0.1741    1.7433 C   0  0  0  0  0  0  0  0  0  0  0  0
    0.4667   -0.1579    3.0285 C   0  0  0  0  0  0  0  0  0  0  0  0
   -0.4243    0.8869    3.5467 C   0  0  0  0  0  0  0  0  0  0  0  0
   -0.8762    1.8330    2.6974 C   0  0  0  0  0  0  0  0  0  0  0  0
   -0.4727    1.8258    1.2511 C   0  0  0  0  0  0  0  0  0  0  0  0
    2.1515   -5.6790   -2.6932 C   0  0  0  0  0  0  0  0  0  0  0  0
    3.6935   -4.4237   -4.1197 C   0  0  0  0  0  0  0  0  0  0  0  0
   -1.3141    2.0980    5.5295 C   0  0  0  0  0  0  0  0  0  0  0  0
   -0.6773   -0.2819    5.7519 C   0  0  0  0  0  0  0  0  0  0  0  0
  1  2  1  0  0  0  0
  1 10  1  0  0  0  0
  1 16  1  0  0  0  0
  2  4  2  0  0  0  0
  2  9  1  0  0  0  0
  4  6  1  0  0  0  0
  6  7  2  0  0  0  0
  7  8  1  0  0  0  0
  8  9  2  0  0  0  0
 10 11  2  0  0  0  0
 10 15  1  0  0  0  0
 11 12  1  0  0  0  0
 12 13  2  0  0  0  0
 13  3  1  0  0  0  0
 13 14  1  0  0  0  0
 14 15  2  0  0  0  0
 16 17  2  0  0  0  0
 16 21  1  0  0  0  0
 17 18  1  0  0  0  0
 18 19  2  0  0  0  0
 19  5  1  0  0  0  0
 19 20  1  0  0  0  0
 20 21  2  0  0  0  0
 22  3  1  0  0  0  0
 23  3  1  0  0  0  0
 24  5  1  0  0  0  0
 25  5  1  0  0  0  0
M  END
>  <CHROM.1>
13.74807449,-168.57107488,-156.64305396,20.24968850,161.01051980,0.91502100
0.03428340,-0.32311639,0.04666853,1.21808580,-0.61481985

>  <Name>
1q8n_lig

>  <RI>
0

>  <Rbt.Current_Directory>
/home/itssahil/PROJECTS/Mol_Feturizer/New_Systems/rnas/1q8n

>  <Rbt.Executable>
rbdock ($Id: //depot/dev/client3/rdock/2013.1/src/exe/rbdock.cxx#4 $)

>  <Rbt.Library>
libRbt.so (2013.1, Build901 2013/11/27)

>  <Rbt.Parameter_File>
/export/apps/rDock/src/rDock_2013.1_src/data/scripts/dock_solv.prm

>  <Rbt.Receptor>
prm/pocket_docking_7.prm

>  <SCORE>
-48.7202

>  <SCORE.INTER>
-50.1763

>  <SCORE.INTER.CONST>
1

>  <SCORE.INTER.POLAR>
0

>  <SCORE.INTER.ROT>
5

>  <SCORE.INTER.SOLV>
9.56805

>  <SCORE.INTER.VDW>
-43.5736

>  <SCORE.INTER.norm>
-2.00705

>  <SCORE.INTRA>
1.45611

>  <SCORE.INTRA.DIHEDRAL>
2.88978

>  <SCORE.INTRA.DIHEDRAL.0>
2.1627

>  <SCORE.INTRA.POLAR>
0

>  <SCORE.INTRA.POLAR.0>
0

>  <SCORE.INTRA.REPUL>
0

>  <SCORE.INTRA.REPUL.0>
0

>  <SCORE.INTRA.SOLV>
0.0613629

>  <SCORE.INTRA.SOLV.lig_0>
-5.95779

>  <SCORE.INTRA.VDW>
-0.0194637

>  <SCORE.INTRA.VDW.0>
3.81702

>  <SCORE.INTRA.norm>
0.0582442

>  <SCORE.RESTR>
0

>  <SCORE.RESTR.CAVITY>
0

>  <SCORE.RESTR.norm>
0

>  <SCORE.SYSTEM>
0

>  <SCORE.SYSTEM.CONST>
0

>  <SCORE.SYSTEM.DIHEDRAL>
0

>  <SCORE.SYSTEM.SOLV>
0

>  <SCORE.SYSTEM.norm>
0

>  <SCORE.heavy>
25

>  <SCORE.norm>
-1.94881

>  <RMSD>
1.781

$$$$
1q8n_lig
 OpenBabel11021811403D
libRbt.so/2013.1/901 2013/11/27
 25 27  0  0  0  0  0  0  0  0999 V2000
    0.8230    0.7684   -0.7624 C   0  0  0  0  0  0  0  0  0  0  0  0
    0.8688    2.0761   -1.7389 C   0  0  0  0  0  0  0  0  0  0  0  0
    2.5533   -4.4677   -3.0007 N   0  0  0  0  0  0  0  0  0  0  0  0
    1.0326    2.0010   -3.0814 C   0  0  0  0  0  0  0  0  0  0  0  0
   -0.8709    0.9643    4.9827 N   0  0  0  0  0  0  0  0  0  0  0  0
    1.0744    3.2133   -3.9314 C   0  0  0  0  0  0  0  0  0  0  0  0
    0.9453    4.4351   -3.3651 C   0  0  0  0  0  0  0  0  0  0  0  0
    0.7629    4.5374   -1.9361 C   0  0  0  0  0  0  0  0  0  0  0  0
    0.7288    3.4371   -1.1803 C   0  0  0  0  0  0  0  0  0  0  0  0
    1.2968   -0.6687   -1.3708 C   0  0  0  0  0  0  0  0  0  0  0  0
    1.1527   -1.8091   -0.6643 C   0  0  0  0  0  0  0  0  0  0  0  0
    1.5796   -3.1298   -1.2039 C   0  0  0  0  0  0  0  0  0  0  0  0
    2.1312   -3.2165   -2.4439 C   0  0  0  0  0  0  0  0  0  0  0  0
    2.2932   -1.9783   -3.2292 C   0  0  0  0  0  0  0  0  0  0  0  0
    1.9052   -0.7975   -2.7275 C   0  0  0  0  0  0  0  0  0  0  0  0
    0.3105    0.8721    0.8110 C   0  0  0  0  0  0  0  0  0  0  0  0
    0.7468   -0.1648    1.8090 C   0  0  0  0  0  0  0  0  0  0  0  0
    0.3777   -0.1336    3.0924 C   0  0  0  0  0  0  0  0  0  0  0  0
   -0.4900    0.9348    3.6016 C   0  0  0  0  0  0  0  0  0  0  0  0
   -0.9151    1.8874    2.7459 C   0  0  0  0  0  0  0  0  0  0  0  0
   -0.5055    1.8636    1.3014 C   0  0  0  0  0  0  0  0  0  0  0  0
    3.4607   -4.5452   -4.1048 C   0  0  0  0  0  0  0  0  0  0  0  0
    2.0687   -5.6975   -2.4547 C   0  0  0  0  0  0  0  0  0  0  0  0
   -0.7861   -0.2230    5.7838 C   0  0  0  0  0  0  0  0  0  0  0  0
   -1.3415    2.1809    5.6054 C   0  0  0  0  0  0  0  0  0  0  0  0
  1  2  1  0  0  0  0
  1 10  1  0  0  0  0
  1 16  1  0  0  0  0
  2  4  2  0  0  0  0
  2  9  1  0  0  0  0
  4  6  1  0  0  0  0
  6  7  2  0  0  0  0
  7  8  1  0  0  0  0
  8  9  2  0  0  0  0
 10 11  2  0  0  0  0
 10 15  1  0  0  0  0
 11 12  1  0  0  0  0
 12 13  2  0  0  0  0
 13  3  1  0  0  0  0
 13 14  1  0  0  0  0
 14 15  2  0  0  0  0
 16 17  2  0  0  0  0
 16 21  1  0  0  0  0
 17 18  1  0  0  0  0
 18 19  2  0  0  0  0
 19  5  1  0  0  0  0
 19 20  1  0  0  0  0
 20 21  2  0  0  0  0
 22  3  1  0  0  0  0
 23  3  1  0  0  0  0
 24  5  1  0  0  0  0
 25  5  1  0  0  0  0
M  END
>  <CHROM.1>
12.93640266,-173.02148692,-157.05298432,-161.78155198,-19.88011992,0.84851405
0.03116711,-0.25511603,0.00577681,1.22616065,-0.58391639

>  <Name>
1q8n_lig

>  <RI>
0

>  <Rbt.Current_Directory>
/home/itssahil/PROJECTS/Mol_Feturizer/New_Systems/rnas/1q8n

>  <Rbt.Executable>
rbdock ($Id: //depot/dev/client3/rdock/2013.1/src/exe/rbdock.cxx#4 $)

>  <Rbt.Library>
libRbt.so (2013.1, Build901 2013/11/27)

>  <Rbt.Parameter_File>
/export/apps/rDock/src/rDock_2013.1_src/data/scripts/dock_solv.prm

>  <Rbt.Receptor>
prm/blind_docking_60.prm

>  <SCORE>
-48.7915

>  <SCORE.INTER>
-50.3434

>  <SCORE.INTER.CONST>
1

>  <SCORE.INTER.POLAR>
0

>  <SCORE.INTER.ROT>
5

>  <SCORE.INTER.SOLV>
9.52001

>  <SCORE.INTER.VDW>
-43.6689

>  <SCORE.INTER.norm>
-2.01374

>  <SCORE.INTRA>
1.55191

>  <SCORE.INTRA.DIHEDRAL>
2.7322

>  <SCORE.INTRA.DIHEDRAL.0>
2.1627

>  <SCORE.INTRA.POLAR>
0

>  <SCORE.INTRA.POLAR.0>
0

>  <SCORE.INTRA.REPUL>
0

>  <SCORE.INTRA.REPUL.0>
0

>  <SCORE.INTRA.SOLV>
0.0641311

>  <SCORE.INTRA.SOLV.lig_0>
-5.95779

>  <SCORE.INTRA.VDW>
0.153746

>  <SCORE.INTRA.VDW.0>
3.81702

>  <SCORE.INTRA.norm>
0.0620764

>  <SCORE.RESTR>
0

>  <SCORE.RESTR.CAVITY>
0

>  <SCORE.RESTR.norm>
0

>  <SCORE.SYSTEM>
0

>  <SCORE.SYSTEM.CONST>
0

>  <SCORE.SYSTEM.DIHEDRAL>
0

>  <SCORE.SYSTEM.SOLV>
0

>  <SCORE.SYSTEM.norm>
0

>  <SCORE.heavy>
25

>  <SCORE.norm>
-1.95166

>  <RMSD>
1.786

$$$$
1q8n_lig
 OpenBabel11021811413D
libRbt.so/2013.1/901 2013/11/27
 25 27  0  0  0  0  0  0  0  0999 V2000
    0.8333    0.7798   -0.7490 C   0  0  0  0  0  0  0  0  0  0  0  0
    0.8807    2.0864   -1.7268 C   0  0  0  0  0  0  0  0  0  0  0  0
    2.5954   -4.4531   -2.9701 N   0  0  0  0  0  0  0  0  0  0  0  0
    1.0633    2.0109   -3.0669 C   0  0  0  0  0  0  0  0  0  0  0  0
   -0.8966    0.9773    4.9852 N   0  0  0  0  0  0  0  0  0  0  0  0
    1.1059    3.2223   -3.9180 C   0  0  0  0  0  0  0  0  0  0  0  0
    0.9584    4.4437   -3.3554 C   0  0  0  0  0  0  0  0  0  0  0  0
    0.7560    4.5464   -1.9291 C   0  0  0  0  0  0  0  0  0  0  0  0
    0.7213    3.4469   -1.1722 C   0  0  0  0  0  0  0  0  0  0  0  0
    1.3159   -0.6565   -1.3528 C   0  0  0  0  0  0  0  0  0  0  0  0
    1.1741   -1.7960   -0.6445 C   0  0  0  0  0  0  0  0  0  0  0  0
    1.6090   -3.1160   -1.1798 C   0  0  0  0  0  0  0  0  0  0  0  0
    2.1657   -3.2027   -2.4175 C   0  0  0  0  0  0  0  0  0  0  0  0
    2.3251   -1.9654   -3.2046 C   0  0  0  0  0  0  0  0  0  0  0  0
    1.9299   -0.7853   -2.7069 C   0  0  0  0  0  0  0  0  0  0  0  0
    0.3106    0.8836    0.8209 C   0  0  0  0  0  0  0  0  0  0  0  0
    0.7488   -0.1474    1.8243 C   0  0  0  0  0  0  0  0  0  0  0  0
    0.3718   -0.1158    3.1054 C   0  0  0  0  0  0  0  0  0  0  0  0
   -0.5072    0.9473    3.6065 C   0  0  0  0  0  0  0  0  0  0  0  0
   -0.9345    1.8944    2.7458 C   0  0  0  0  0  0  0  0  0  0  0  0
   -0.5160    1.8700    1.3038 C   0  0  0  0  0  0  0  0  0  0  0  0
    3.5299   -4.5294   -4.0515 C   0  0  0  0  0  0  0  0  0  0  0  0
    2.0913   -5.6833   -2.4430 C   0  0  0  0  0  0  0  0  0  0  0  0
   -0.8299   -0.2128    5.7837 C   0  0  0  0  0  0  0  0  0  0  0  0
   -1.3580    2.1974    5.6081 C   0  0  0  0  0  0  0  0  0  0  0  0
  1  2  1  0  0  0  0
  1 10  1  0  0  0  0
  1 16  1  0  0  0  0
  2  4  2  0  0  0  0
  2  9  1  0  0  0  0
  4  6  1  0  0  0  0
  6  7  2  0  0  0  0
  7  8  1  0  0  0  0
  8  9  2  0  0  0  0
 10 11  2  0  0  0  0
 10 15  1  0  0  0  0
 11 12  1  0  0  0  0
 12 13  2  0  0  0  0
 13  3  1  0  0  0  0
 13 14  1  0  0  0  0
 14 15  2  0  0  0  0
 16 17  2  0  0  0  0
 16 21  1  0  0  0  0
 17 18  1  0  0  0  0
 18 19  2  0  0  0  0
 19  5  1  0  0  0  0
 19 20  1  0  0  0  0
 20 21  2  0  0  0  0
 22  3  1  0  0  0  0
 23  3  1  0  0  0  0
 24  5  1  0  0  0  0
 25  5  1  0  0  0  0
M  END
>  <CHROM.1>
12.42217863,-173.18488139,-156.79472585,-160.38302710,-20.98337448,0.85811319
0.04334092,-0.24070438,0.00333393,1.21899365,-0.58298100

>  <Name>
1q8n_lig

>  <RI>
0

>  <Rbt.Current_Directory>
/home/itssahil/PROJECTS/Mol_Feturizer/New_Systems/rnas/1q8n

>  <Rbt.Executable>
rbdock ($Id: //depot/dev/client3/rdock/2013.1/src/exe/rbdock.cxx#4 $)

>  <Rbt.Library>
libRbt.so (2013.1, Build901 2013/11/27)

>  <Rbt.Parameter_File>
/export/apps/rDock/src/rDock_2013.1_src/data/scripts/dock_solv.prm

>  <Rbt.Receptor>
prm/pocket_docking_8.prm

>  <SCORE>
-48.7611

>  <SCORE.INTER>
-50.3785

>  <SCORE.INTER.CONST>
1

>  <SCORE.INTER.POLAR>
0

>  <SCORE.INTER.ROT>
5

>  <SCORE.INTER.SOLV>
9.5755

>  <SCORE.INTER.VDW>
-43.7108

>  <SCORE.INTER.norm>
-2.01514

>  <SCORE.INTRA>
1.61737

>  <SCORE.INTRA.DIHEDRAL>
3.08516

>  <SCORE.INTRA.DIHEDRAL.0>
2.1627

>  <SCORE.INTRA.POLAR>
0

>  <SCORE.INTRA.POLAR.0>
0

>  <SCORE.INTRA.REPUL>
0

>  <SCORE.INTRA.REPUL.0>
0

>  <SCORE.INTRA.SOLV>
0.064209

>  <SCORE.INTRA.SOLV.lig_0>
-5.95779

>  <SCORE.INTRA.VDW>
0.0426825

>  <SCORE.INTRA.VDW.0>
3.81702

>  <SCORE.INTRA.norm>
0.0646946

>  <SCORE.RESTR>
0

>  <SCORE.RESTR.CAVITY>
0

>  <SCORE.RESTR.norm>
0

>  <SCORE.SYSTEM>
0

>  <SCORE.SYSTEM.CONST>
0

>  <SCORE.SYSTEM.DIHEDRAL>
0

>  <SCORE.SYSTEM.SOLV>
0

>  <SCORE.SYSTEM.norm>
0

>  <SCORE.heavy>
25

>  <SCORE.norm>
-1.95045

>  <RMSD>
1.787

$$$$
1q8n_lig
 OpenBabel11021811413D
libRbt.so/2013.1/901 2013/11/27
 25 27  0  0  0  0  0  0  0  0999 V2000
    0.8305    0.6782   -0.6604 C   0  0  0  0  0  0  0  0  0  0  0  0
    0.8398    2.0346   -1.5691 C   0  0  0  0  0  0  0  0  0  0  0  0
   -0.9369    1.1085    5.0064 N   0  0  0  0  0  0  0  0  0  0  0  0
    0.7156    3.2809   -1.0530 C   0  0  0  0  0  0  0  0  0  0  0  0
    2.6254   -4.5042   -3.0757 N   0  0  0  0  0  0  0  0  0  0  0  0
    0.7232    4.4862   -1.9139 C   0  0  0  0  0  0  0  0  0  0  0  0
    0.8587    4.3537   -3.2533 C   0  0  0  0  0  0  0  0  0  0  0  0
    0.9994    3.0344   -3.8237 C   0  0  0  0  0  0  0  0  0  0  0  0
    0.9891    1.9553   -3.0372 C   0  0  0  0  0  0  0  0  0  0  0  0
    0.3477    0.7910    0.8934 C   0  0  0  0  0  0  0  0  0  0  0  0
    0.7395   -0.1133    1.8149 C   0  0  0  0  0  0  0  0  0  0  0  0
    0.3086   -0.0260    3.2378 C   0  0  0  0  0  0  0  0  0  0  0  0
   -0.5013    0.9871    3.6465 C   0  0  0  0  0  0  0  0  0  0  0  0
   -0.9361    1.9847    2.6507 C   0  0  0  0  0  0  0  0  0  0  0  0
   -0.5403    1.8901    1.3736 C   0  0  0  0  0  0  0  0  0  0  0  0
    1.2966   -0.7883   -1.2774 C   0  0  0  0  0  0  0  0  0  0  0  0
    1.9075   -0.8618   -2.6496 C   0  0  0  0  0  0  0  0  0  0  0  0
    2.3125   -2.0094   -3.2004 C   0  0  0  0  0  0  0  0  0  0  0  0
    2.1776   -3.2806   -2.4795 C   0  0  0  0  0  0  0  0  0  0  0  0
    1.6299   -3.2713   -1.2464 C   0  0  0  0  0  0  0  0  0  0  0  0
    1.1724   -1.9872   -0.6166 C   0  0  0  0  0  0  0  0  0  0  0  0
   -0.8845    0.0130    5.9259 C   0  0  0  0  0  0  0  0  0  0  0  0
   -1.4451    2.3547    5.4899 C   0  0  0  0  0  0  0  0  0  0  0  0
    2.0969   -5.7625   -2.6333 C   0  0  0  0  0  0  0  0  0  0  0  0
    3.6092   -4.5067   -4.1348 C   0  0  0  0  0  0  0  0  0  0  0  0
  1  2  1  0  0  0  0
  1 10  1  0  0  0  0
  1 16  1  0  0  0  0
  2  4  2  0  0  0  0
  2  9  1  0  0  0  0
  4  6  1  0  0  0  0
  6  7  2  0  0  0  0
  7  8  1  0  0  0  0
  8  9  2  0  0  0  0
 10 11  2  0  0  0  0
 10 15  1  0  0  0  0
 11 12  1  0  0  0  0
 12 13  2  0  0  0  0
 13  3  1  0  0  0  0
 13 14  1  0  0  0  0
 14 15  2  0  0  0  0
 16 17  2  0  0  0  0
 16 21  1  0  0  0  0
 17 18  1  0  0  0  0
 18 19  2  0  0  0  0
 19  5  1  0  0  0  0
 19 20  1  0  0  0  0
 20 21  2  0  0  0  0
 22  3  1  0  0  0  0
 23  3  1  0  0  0  0
 24  5  1  0  0  0  0
 25  5  1  0  0  0  0
M  END
>  <CHROM.1>
12.92979625,-156.31050033,7.81453024,-18.24333656,-157.83549010,0.83772306
0.01495491,-0.22289576,-3.13583276,-1.22031046,2.53944893

>  <Name>
1q8n_lig

>  <RI>
0

>  <Rbt.Current_Directory>
/home/itssahil/PROJECTS/Mol_Feturizer/New_Systems/rnas/1q8n

>  <Rbt.Executable>
rbdock ($Id: //depot/dev/client3/rdock/2013.1/src/exe/rbdock.cxx#4 $)

>  <Rbt.Library>
libRbt.so (2013.1, Build901 2013/11/27)

>  <Rbt.Parameter_File>
/export/apps/rDock/src/rDock_2013.1_src/data/scripts/dock_solv.prm

>  <Rbt.Receptor>
prm/pocket_docking_6.prm

>  <SCORE>
-49.111

>  <SCORE.INTER>
-50.6139

>  <SCORE.INTER.CONST>
1

>  <SCORE.INTER.POLAR>
0

>  <SCORE.INTER.ROT>
5

>  <SCORE.INTER.SOLV>
9.39102

>  <SCORE.INTER.VDW>
-43.8063

>  <SCORE.INTER.norm>
-2.02456

>  <SCORE.INTRA>
1.50295

>  <SCORE.INTRA.DIHEDRAL>
3.07199

>  <SCORE.INTRA.DIHEDRAL.0>
2.1627

>  <SCORE.INTRA.POLAR>
0

>  <SCORE.INTRA.POLAR.0>
0

>  <SCORE.INTRA.REPUL>
0

>  <SCORE.INTRA.REPUL.0>
0

>  <SCORE.INTRA.SOLV>
0.0633881

>  <SCORE.INTRA.SOLV.lig_0>
-5.95779

>  <SCORE.INTRA.VDW>
-0.0647425

>  <SCORE.INTRA.VDW.0>
3.81702

>  <SCORE.INTRA.norm>
0.0601179

>  <SCORE.RESTR>
0

>  <SCORE.RESTR.CAVITY>
0

>  <SCORE.RESTR.norm>
0

>  <SCORE.SYSTEM>
0

>  <SCORE.SYSTEM.CONST>
0

>  <SCORE.SYSTEM.DIHEDRAL>
0

>  <SCORE.SYSTEM.SOLV>
0

>  <SCORE.SYSTEM.norm>
0

>  <SCORE.heavy>
25

>  <SCORE.norm>
-1.96444

>  <RMSD>
1.791

$$$$
1q8n_lig
 OpenBabel11021811413D
libRbt.so/2013.1/901 2013/11/27
 25 27  0  0  0  0  0  0  0  0999 V2000
    0.8501    0.7117   -0.6248 C   0  0  0  0  0  0  0  0  0  0  0  0
    0.8846    2.0663   -1.5355 C   0  0  0  0  0  0  0  0  0  0  0  0
   -0.9765    1.1713    5.0209 N   0  0  0  0  0  0  0  0  0  0  0  0
    0.7216    3.3120   -1.0289 C   0  0  0  0  0  0  0  0  0  0  0  0
    2.6121   -4.4944   -3.0132 N   0  0  0  0  0  0  0  0  0  0  0  0
    0.7540    4.5156   -1.8916 C   0  0  0  0  0  0  0  0  0  0  0  0
    0.9524    4.3822   -3.2230 C   0  0  0  0  0  0  0  0  0  0  0  0
    1.1352    3.0635   -3.7830 C   0  0  0  0  0  0  0  0  0  0  0  0
    1.1020    1.9859   -2.9951 C   0  0  0  0  0  0  0  0  0  0  0  0
    0.3511    0.8325    0.9232 C   0  0  0  0  0  0  0  0  0  0  0  0
    0.7203   -0.0759    1.8500 C   0  0  0  0  0  0  0  0  0  0  0  0
    0.2742    0.0186    3.2677 C   0  0  0  0  0  0  0  0  0  0  0  0
   -0.5269    1.0427    3.6663 C   0  0  0  0  0  0  0  0  0  0  0  0
   -0.9370    2.0449    2.6646 C   0  0  0  0  0  0  0  0  0  0  0  0
   -0.5279    1.9437    1.3922 C   0  0  0  0  0  0  0  0  0  0  0  0
    1.3071   -0.7609   -1.2341 C   0  0  0  0  0  0  0  0  0  0  0  0
    1.9135   -0.8460   -2.6076 C   0  0  0  0  0  0  0  0  0  0  0  0
    2.3112   -1.9989   -3.1525 C   0  0  0  0  0  0  0  0  0  0  0  0
    2.1721   -3.2649   -2.4233 C   0  0  0  0  0  0  0  0  0  0  0  0
    1.6281   -3.2453   -1.1887 C   0  0  0  0  0  0  0  0  0  0  0  0
    1.1789   -1.9550   -0.5655 C   0  0  0  0  0  0  0  0  0  0  0  0
   -0.9455    0.0772    5.9431 C   0  0  0  0  0  0  0  0  0  0  0  0
   -1.4774    2.4236    5.4963 C   0  0  0  0  0  0  0  0  0  0  0  0
    2.0844   -5.7478   -2.5561 C   0  0  0  0  0  0  0  0  0  0  0  0
    3.5869   -4.5079   -4.0805 C   0  0  0  0  0  0  0  0  0  0  0  0
  1  2  1  0  0  0  0
  1 10  1  0  0  0  0
  1 16  1  0  0  0  0
  2  4  2  0  0  0  0
  2  9  1  0  0  0  0
  4  6  1  0  0  0  0
  6  7  2  0  0  0  0
  7  8  1  0  0  0  0
  8  9  2  0  0  0  0
 10 11  2  0  0  0  0
 10 15  1  0  0  0  0
 11 12  1  0  0  0  0
 12 13  2  0  0  0  0
 13  3  1  0  0  0  0
 13 14  1  0  0  0  0
 14 15  2  0  0  0  0
 16 17  2  0  0  0  0
 16 21  1  0  0  0  0
 17 18  1  0  0  0  0
 18 19  2  0  0  0  0
 19  5  1  0  0  0  0
 19 20  1  0  0  0  0
 20 21  2  0  0  0  0
 22  3  1  0  0  0  0
 23  3  1  0  0  0  0
 24  5  1  0  0  0  0
 25  5  1  0  0  0  0
M  END
>  <CHROM.1>
10.54415245,-156.44642265,6.89095340,-18.05714653,-158.20093204,0.84508112
0.04916755,-0.18658395,-3.09153080,-1.21674543,2.57978211

>  <Name>
1q8n_lig

>  <RI>
0

>  <Rbt.Current_Directory>
/home/itssahil/PROJECTS/Mol_Feturizer/New_Systems/rnas/1q8n

>  <Rbt.Executable>
rbdock ($Id: //depot/dev/client3/rdock/2013.1/src/exe/rbdock.cxx#4 $)

>  <Rbt.Library>
libRbt.so (2013.1, Build901 2013/11/27)

>  <Rbt.Parameter_File>
/export/apps/rDock/src/rDock_2013.1_src/data/scripts/dock_solv.prm

>  <Rbt.Receptor>
prm/pocket_docking_7.prm

>  <SCORE>
-49.1927

>  <SCORE.INTER>
-50.7743

>  <SCORE.INTER.CONST>
1

>  <SCORE.INTER.POLAR>
0

>  <SCORE.INTER.ROT>
5

>  <SCORE.INTER.SOLV>
9.56293

>  <SCORE.INTER.VDW>
-43.9705

>  <SCORE.INTER.norm>
-2.03097

>  <SCORE.INTRA>
1.58152

>  <SCORE.INTRA.DIHEDRAL>
2.99079

>  <SCORE.INTRA.DIHEDRAL.0>
2.1627

>  <SCORE.INTRA.POLAR>
0

>  <SCORE.INTRA.POLAR.0>
0

>  <SCORE.INTRA.REPUL>
0

>  <SCORE.INTRA.REPUL.0>
0

>  <SCORE.INTRA.SOLV>
0.0651138

>  <SCORE.INTRA.SOLV.lig_0>
-5.95779

>  <SCORE.INTRA.VDW>
0.0535703

>  <SCORE.INTRA.VDW.0>
3.81702

>  <SCORE.INTRA.norm>
0.0632609

>  <SCORE.RESTR>
0

>  <SCORE.RESTR.CAVITY>
0

>  <SCORE.RESTR.norm>
0

>  <SCORE.SYSTEM>
0

>  <SCORE.SYSTEM.CONST>
0

>  <SCORE.SYSTEM.DIHEDRAL>
0

>  <SCORE.SYSTEM.SOLV>
0

>  <SCORE.SYSTEM.norm>
0

>  <SCORE.heavy>
25

>  <SCORE.norm>
-1.96771

>  <RMSD>
1.793

$$$$
1q8n_lig
 OpenBabel11021811413D
libRbt.so/2013.1/901 2013/11/27
 25 27  0  0  0  0  0  0  0  0999 V2000
    0.8959    0.6476   -0.6929 C   0  0  0  0  0  0  0  0  0  0  0  0
    0.9160    1.9688   -1.6517 C   0  0  0  0  0  0  0  0  0  0  0  0
    2.5934   -4.5507   -3.0421 N   0  0  0  0  0  0  0  0  0  0  0  0
    1.1051    1.9170   -2.9920 C   0  0  0  0  0  0  0  0  0  0  0  0
   -0.9860    1.1176    4.9773 N   0  0  0  0  0  0  0  0  0  0  0  0
    1.1222    3.1412   -3.8255 C   0  0  0  0  0  0  0  0  0  0  0  0
    0.9437    4.3505   -3.2461 C   0  0  0  0  0  0  0  0  0  0  0  0
    0.7336    4.4279   -1.8193 C   0  0  0  0  0  0  0  0  0  0  0  0
    0.7223    3.3171   -1.0783 C   0  0  0  0  0  0  0  0  0  0  0  0
    1.3607   -0.7793   -1.3318 C   0  0  0  0  0  0  0  0  0  0  0  0
    1.1988   -1.9348   -0.6543 C   0  0  0  0  0  0  0  0  0  0  0  0
    1.6173   -3.2465   -1.2220 C   0  0  0  0  0  0  0  0  0  0  0  0
    2.1790   -3.3090   -2.4589 C   0  0  0  0  0  0  0  0  0  0  0  0
    2.3604   -2.0539   -3.2125 C   0  0  0  0  0  0  0  0  0  0  0  0
    1.9798   -0.8816   -2.6858 C   0  0  0  0  0  0  0  0  0  0  0  0
    0.4180    0.7275    0.8927 C   0  0  0  0  0  0  0  0  0  0  0  0
   -0.4585    1.8594    1.3530 C   0  0  0  0  0  0  0  0  0  0  0  0
   -0.8860    1.9767    2.6131 C   0  0  0  0  0  0  0  0  0  0  0  0
   -0.5128    0.9876    3.6310 C   0  0  0  0  0  0  0  0  0  0  0  0
    0.2777   -0.0452    3.2718 C   0  0  0  0  0  0  0  0  0  0  0  0
    0.7630   -0.1883    1.8580 C   0  0  0  0  0  0  0  0  0  0  0  0
    2.0514   -5.8084   -2.6262 C   0  0  0  0  0  0  0  0  0  0  0  0
    3.5796   -4.5648   -4.0777 C   0  0  0  0  0  0  0  0  0  0  0  0
   -1.4879    2.3753    5.4513 C   0  0  0  0  0  0  0  0  0  0  0  0
   -0.9774   -0.0055    5.8873 C   0  0  0  0  0  0  0  0  0  0  0  0
  1  2  1  0  0  0  0
  1 10  1  0  0  0  0
  1 16  1  0  0  0  0
  2  4  2  0  0  0  0
  2  9  1  0  0  0  0
  4  6  1  0  0  0  0
  6  7  2  0  0  0  0
  7  8  1  0  0  0  0
  8  9  2  0  0  0  0
 10 11  2  0  0  0  0
 10 15  1  0  0  0  0
 11 12  1  0  0  0  0
 12 13  2  0  0  0  0
 13  3  1  0  0  0  0
 13 14  1  0  0  0  0
 14 15  2  0  0  0  0
 16 17  2  0  0  0  0
 16 21  1  0  0  0  0
 17 18  1  0  0  0  0
 18 19  2  0  0  0  0
 19  5  1  0  0  0  0
 19 20  1  0  0  0  0
 20 21  2  0  0  0  0
 22  3  1  0  0  0  0
 23  3  1  0  0  0  0
 24  5  1  0  0  0  0
 25  5  1  0  0  0  0
M  END
>  <CHROM.1>
10.12582787,-171.00588809,22.09168830,22.50041129,-18.21792773,0.85817372
-0.00087877,-0.22635920,-0.05557752,1.21692940,-0.55443559

>  <Name>
1q8n_lig

>  <RI>
0

>  <Rbt.Current_Directory>
/home/itssahil/PROJECTS/Mol_Feturizer/New_Systems/rnas/1q8n

>  <Rbt.Executable>
rbdock ($Id: //depot/dev/client3/rdock/2013.1/src/exe/rbdock.cxx#4 $)

>  <Rbt.Library>
libRbt.so (2013.1, Build901 2013/11/27)

>  <Rbt.Parameter_File>
/export/apps/rDock/src/rDock_2013.1_src/data/scripts/dock_solv.prm

>  <Rbt.Receptor>
prm/pocket_docking_8.prm

>  <SCORE>
-49.8158

>  <SCORE.INTER>
-51.4192

>  <SCORE.INTER.CONST>
1

>  <SCORE.INTER.POLAR>
0

>  <SCORE.INTER.ROT>
5

>  <SCORE.INTER.SOLV>
9.53689

>  <SCORE.INTER.VDW>
-44.3918

>  <SCORE.INTER.norm>
-2.05677

>  <SCORE.INTRA>
1.60346

>  <SCORE.INTRA.DIHEDRAL>
3.12389

>  <SCORE.INTRA.DIHEDRAL.0>
2.1627

>  <SCORE.INTRA.POLAR>
0

>  <SCORE.INTRA.POLAR.0>
0

>  <SCORE.INTRA.REPUL>
0

>  <SCORE.INTRA.REPUL.0>
0

>  <SCORE.INTRA.SOLV>
0.0655484

>  <SCORE.INTRA.SOLV.lig_0>
-5.95779

>  <SCORE.INTRA.VDW>
0.0087352

>  <SCORE.INTRA.VDW.0>
3.81702

>  <SCORE.INTRA.norm>
0.0641382

>  <SCORE.RESTR>
0

>  <SCORE.RESTR.CAVITY>
0

>  <SCORE.RESTR.norm>
0

>  <SCORE.SYSTEM>
0

>  <SCORE.SYSTEM.CONST>
0

>  <SCORE.SYSTEM.DIHEDRAL>
0

>  <SCORE.SYSTEM.SOLV>
0

>  <SCORE.SYSTEM.norm>
0

>  <SCORE.heavy>
25

>  <SCORE.norm>
-1.99263

>  <RMSD>
1.794

$$$$
1q8n_lig
 OpenBabel11021811403D
libRbt.so/2013.1/901 2013/11/27
 25 27  0  0  0  0  0  0  0  0999 V2000
    0.8366    0.7679   -0.7391 C   0  0  0  0  0  0  0  0  0  0  0  0
    0.8779    2.0742   -1.7176 C   0  0  0  0  0  0  0  0  0  0  0  0
    2.6071   -4.4611   -2.9627 N   0  0  0  0  0  0  0  0  0  0  0  0
    1.0489    1.9980   -3.0592 C   0  0  0  0  0  0  0  0  0  0  0  0
   -0.8772    0.9636    5.0000 N   0  0  0  0  0  0  0  0  0  0  0  0
    1.0862    3.2092   -3.9110 C   0  0  0  0  0  0  0  0  0  0  0  0
    0.9456    4.4310   -3.3475 C   0  0  0  0  0  0  0  0  0  0  0  0
    0.7554    4.5344   -1.9195 C   0  0  0  0  0  0  0  0  0  0  0  0
    0.7254    3.4351   -1.1620 C   0  0  0  0  0  0  0  0  0  0  0  0
    1.3212   -0.6674   -1.3436 C   0  0  0  0  0  0  0  0  0  0  0  0
    1.1135   -1.8167   -0.6682 C   0  0  0  0  0  0  0  0  0  0  0  0
    1.5491   -3.1359   -1.2047 C   0  0  0  0  0  0  0  0  0  0  0  0
    2.1741   -3.2119   -2.4100 C   0  0  0  0  0  0  0  0  0  0  0  0
    2.4062   -1.9637   -3.1612 C   0  0  0  0  0  0  0  0  0  0  0  0
    2.0093   -0.7845   -2.6627 C   0  0  0  0  0  0  0  0  0  0  0  0
    0.3182    0.8710    0.8323 C   0  0  0  0  0  0  0  0  0  0  0  0
    0.7620   -0.1583    1.8348 C   0  0  0  0  0  0  0  0  0  0  0  0
    0.3885   -0.1271    3.1170 C   0  0  0  0  0  0  0  0  0  0  0  0
   -0.4917    0.9339    3.6202 C   0  0  0  0  0  0  0  0  0  0  0  0
   -0.9239    1.8796    2.7603 C   0  0  0  0  0  0  0  0  0  0  0  0
   -0.5095    1.8556    1.3171 C   0  0  0  0  0  0  0  0  0  0  0  0
    2.0790   -5.7159   -2.5208 C   0  0  0  0  0  0  0  0  0  0  0  0
    3.5986   -4.4864   -3.9930 C   0  0  0  0  0  0  0  0  0  0  0  0
   -0.8002   -0.2247    5.8002 C   0  0  0  0  0  0  0  0  0  0  0  0
   -1.3448    2.1816    5.6223 C   0  0  0  0  0  0  0  0  0  0  0  0
  1  2  1  0  0  0  0
  1 10  1  0  0  0  0
  1 16  1  0  0  0  0
  2  4  2  0  0  0  0
  2  9  1  0  0  0  0
  4  6  1  0  0  0  0
  6  7  2  0  0  0  0
  7  8  1  0  0  0  0
  8  9  2  0  0  0  0
 10 11  2  0  0  0  0
 10 15  1  0  0  0  0
 11 12  1  0  0  0  0
 12 13  2  0  0  0  0
 13  3  1  0  0  0  0
 13 14  1  0  0  0  0
 14 15  2  0  0  0  0
 16 17  2  0  0  0  0
 16 21  1  0  0  0  0
 17 18  1  0  0  0  0
 18 19  2  0  0  0  0
 19  5  1  0  0  0  0
 19 20  1  0  0  0  0
 20 21  2  0  0  0  0
 22  3  1  0  0  0  0
 23  3  1  0  0  0  0
 24  5  1  0  0  0  0
 25  5  1  0  0  0  0
M  END
>  <CHROM.1>
12.82532343,-169.25333071,-156.79596374,19.36934673,-20.74065157,0.86702301
0.03306076,-0.23185384,0.00796984,1.21867860,-0.58701108

>  <Name>
1q8n_lig

>  <RI>
0

>  <Rbt.Current_Directory>
/home/itssahil/PROJECTS/Mol_Feturizer/New_Systems/rnas/1q8n

>  <Rbt.Executable>
rbdock ($Id: //depot/dev/client3/rdock/2013.1/src/exe/rbdock.cxx#4 $)

>  <Rbt.Library>
libRbt.so (2013.1, Build901 2013/11/27)

>  <Rbt.Parameter_File>
/export/apps/rDock/src/rDock_2013.1_src/data/scripts/dock_solv.prm

>  <Rbt.Receptor>
prm/pocket_docking_4.prm

>  <SCORE>
-48.7465

>  <SCORE.INTER>
-50.2134

>  <SCORE.INTER.CONST>
1

>  <SCORE.INTER.POLAR>
0

>  <SCORE.INTER.ROT>
5

>  <SCORE.INTER.SOLV>
9.54614

>  <SCORE.INTER.VDW>
-43.591

>  <SCORE.INTER.norm>
-2.00854

>  <SCORE.INTRA>
1.4669

>  <SCORE.INTRA.DIHEDRAL>
3.01442

>  <SCORE.INTRA.DIHEDRAL.0>
2.1627

>  <SCORE.INTRA.POLAR>
0

>  <SCORE.INTRA.POLAR.0>
0

>  <SCORE.INTRA.REPUL>
0

>  <SCORE.INTRA.REPUL.0>
0

>  <SCORE.INTRA.SOLV>
0.0623436

>  <SCORE.INTRA.SOLV.lig_0>
-5.95779

>  <SCORE.INTRA.VDW>
-0.0714816

>  <SCORE.INTRA.VDW.0>
3.81702

>  <SCORE.INTRA.norm>
0.058676

>  <SCORE.RESTR>
0

>  <SCORE.RESTR.CAVITY>
0

>  <SCORE.RESTR.norm>
0

>  <SCORE.SYSTEM>
0

>  <SCORE.SYSTEM.CONST>
0

>  <SCORE.SYSTEM.DIHEDRAL>
0

>  <SCORE.SYSTEM.SOLV>
0

>  <SCORE.SYSTEM.norm>
0

>  <SCORE.heavy>
25

>  <SCORE.norm>
-1.94986

>  <RMSD>
1.797

$$$$
1q8n_lig
 OpenBabel11021811413D
libRbt.so/2013.1/901 2013/11/27
 25 27  0  0  0  0  0  0  0  0999 V2000
    0.8643    0.7471   -0.8320 C   0  0  0  0  0  0  0  0  0  0  0  0
    0.8933    2.0699   -1.7885 C   0  0  0  0  0  0  0  0  0  0  0  0
    2.6702   -4.4463   -3.1099 N   0  0  0  0  0  0  0  0  0  0  0  0
    1.0412    2.0162   -3.1339 C   0  0  0  0  0  0  0  0  0  0  0  0
   -0.8437    0.8309    4.9116 N   0  0  0  0  0  0  0  0  0  0  0  0
    1.0681    3.2417   -3.9654 C   0  0  0  0  0  0  0  0  0  0  0  0
    0.9409    4.4540   -3.3788 C   0  0  0  0  0  0  0  0  0  0  0  0
    0.7753    4.5335   -1.9462 C   0  0  0  0  0  0  0  0  0  0  0  0
    0.7546    3.4215   -1.2072 C   0  0  0  0  0  0  0  0  0  0  0  0
    1.3597   -0.6738   -1.4611 C   0  0  0  0  0  0  0  0  0  0  0  0
    1.9628   -0.7326   -2.6666 C   0  0  0  0  0  0  0  0  0  0  0  0
    2.4215   -2.0208   -3.2564 C   0  0  0  0  0  0  0  0  0  0  0  0
    2.2417   -3.1861   -2.5789 C   0  0  0  0  0  0  0  0  0  0  0  0
    1.5857   -3.1373   -1.2585 C   0  0  0  0  0  0  0  0  0  0  0  0
    1.1773   -1.9694   -0.7432 C   0  0  0  0  0  0  0  0  0  0  0  0
    0.3476    0.8197    0.7417 C   0  0  0  0  0  0  0  0  0  0  0  0
    0.7901   -0.2305    1.7229 C   0  0  0  0  0  0  0  0  0  0  0  0
    0.4179   -0.2243    3.0058 C   0  0  0  0  0  0  0  0  0  0  0  0
   -0.4596    0.8282    3.5311 C   0  0  0  0  0  0  0  0  0  0  0  0
   -0.8906    1.7918    2.6908 C   0  0  0  0  0  0  0  0  0  0  0  0
   -0.4776    1.7960    1.2471 C   0  0  0  0  0  0  0  0  0  0  0  0
    3.6497   -4.5440   -4.1489 C   0  0  0  0  0  0  0  0  0  0  0  0
    2.1188   -5.6647   -2.6034 C   0  0  0  0  0  0  0  0  0  0  0  0
   -0.7657   -0.3728    5.6884 C   0  0  0  0  0  0  0  0  0  0  0  0
   -1.3110    2.0364    5.5580 C   0  0  0  0  0  0  0  0  0  0  0  0
  1  2  1  0  0  0  0
  1 10  1  0  0  0  0
  1 16  1  0  0  0  0
  2  4  2  0  0  0  0
  2  9  1  0  0  0  0
  4  6  1  0  0  0  0
  6  7  2  0  0  0  0
  7  8  1  0  0  0  0
  8  9  2  0  0  0  0
 10 11  2  0  0  0  0
 10 15  1  0  0  0  0
 11 12  1  0  0  0  0
 12 13  2  0  0  0  0
 13  3  1  0  0  0  0
 13 14  1  0  0  0  0
 14 15  2  0  0  0  0
 16 17  2  0  0  0  0
 16 21  1  0  0  0  0
 17 18  1  0  0  0  0
 18 19  2  0  0  0  0
 19  5  1  0  0  0  0
 19 20  1  0  0  0  0
 20 21  2  0  0  0  0
 22  3  1  0  0  0  0
 23  3  1  0  0  0  0
 24  5  1  0  0  0  0
 25  5  1  0  0  0  0
M  END
>  <CHROM.1>
13.92218417,9.68823961,-157.42167366,19.53310864,-20.60488844,0.89439952
-0.00796972,-0.31628936,0.01959062,1.21633689,-0.59006362

>  <Name>
1q8n_lig

>  <RI>
0

>  <Rbt.Current_Directory>
/home/itssahil/PROJECTS/Mol_Feturizer/New_Systems/rnas/1q8n

>  <Rbt.Executable>
rbdock ($Id: //depot/dev/client3/rdock/2013.1/src/exe/rbdock.cxx#4 $)

>  <Rbt.Library>
libRbt.so (2013.1, Build901 2013/11/27)

>  <Rbt.Parameter_File>
/export/apps/rDock/src/rDock_2013.1_src/data/scripts/dock_solv.prm

>  <Rbt.Receptor>
prm/pocket_docking_7.prm

>  <SCORE>
-48.7537

>  <SCORE.INTER>
-50.3372

>  <SCORE.INTER.CONST>
1

>  <SCORE.INTER.POLAR>
0

>  <SCORE.INTER.ROT>
5

>  <SCORE.INTER.SOLV>
9.48624

>  <SCORE.INTER.VDW>
-43.6536

>  <SCORE.INTER.norm>
-2.01349

>  <SCORE.INTRA>
1.58355

>  <SCORE.INTRA.DIHEDRAL>
3.01638

>  <SCORE.INTRA.DIHEDRAL.0>
2.1627

>  <SCORE.INTRA.POLAR>
0

>  <SCORE.INTRA.POLAR.0>
0

>  <SCORE.INTRA.REPUL>
0

>  <SCORE.INTRA.REPUL.0>
0

>  <SCORE.INTRA.SOLV>
0.0628173

>  <SCORE.INTRA.SOLV.lig_0>
-5.95779

>  <SCORE.INTRA.VDW>
0.0439478

>  <SCORE.INTRA.VDW.0>
3.81702

>  <SCORE.INTRA.norm>
0.0633418

>  <SCORE.RESTR>
0

>  <SCORE.RESTR.CAVITY>
0

>  <SCORE.RESTR.norm>
0

>  <SCORE.SYSTEM>
0

>  <SCORE.SYSTEM.CONST>
0

>  <SCORE.SYSTEM.DIHEDRAL>
0

>  <SCORE.SYSTEM.SOLV>
0

>  <SCORE.SYSTEM.norm>
0

>  <SCORE.heavy>
25

>  <SCORE.norm>
-1.95015

>  <RMSD>
1.797

$$$$
1q8n_lig
 OpenBabel11021811403D
libRbt.so/2013.1/901 2013/11/27
 25 27  0  0  0  0  0  0  0  0999 V2000
    0.8410    0.7049   -0.6289 C   0  0  0  0  0  0  0  0  0  0  0  0
    0.8689    2.0587   -1.5411 C   0  0  0  0  0  0  0  0  0  0  0  0
   -0.9688    1.1656    5.0221 N   0  0  0  0  0  0  0  0  0  0  0  0
    0.7007    3.3041   -1.0358 C   0  0  0  0  0  0  0  0  0  0  0  0
    2.6048   -4.4993   -3.0202 N   0  0  0  0  0  0  0  0  0  0  0  0
    0.7273    4.5069   -1.8998 C   0  0  0  0  0  0  0  0  0  0  0  0
    0.9255    4.3729   -3.2313 C   0  0  0  0  0  0  0  0  0  0  0  0
    1.1139    3.0544   -3.7899 C   0  0  0  0  0  0  0  0  0  0  0  0
    1.0859    1.9776   -3.0007 C   0  0  0  0  0  0  0  0  0  0  0  0
    0.3466    0.8261    0.9206 C   0  0  0  0  0  0  0  0  0  0  0  0
    0.7274   -0.0761    1.8488 C   0  0  0  0  0  0  0  0  0  0  0  0
    0.2857    0.0188    3.2679 C   0  0  0  0  0  0  0  0  0  0  0  0
   -0.5231    1.0369    3.6662 C   0  0  0  0  0  0  0  0  0  0  0  0
   -0.9459    2.0322    2.6630 C   0  0  0  0  0  0  0  0  0  0  0  0
   -0.5406    1.9308    1.3894 C   0  0  0  0  0  0  0  0  0  0  0  0
    1.2999   -0.7671   -1.2381 C   0  0  0  0  0  0  0  0  0  0  0  0
    1.8771   -0.8555   -2.6240 C   0  0  0  0  0  0  0  0  0  0  0  0
    2.2749   -2.0080   -3.1696 C   0  0  0  0  0  0  0  0  0  0  0  0
    2.1649   -3.2703   -2.4290 C   0  0  0  0  0  0  0  0  0  0  0  0
    1.6478   -3.2476   -1.1830 C   0  0  0  0  0  0  0  0  0  0  0  0
    1.1988   -1.9578   -0.5588 C   0  0  0  0  0  0  0  0  0  0  0  0
   -1.4490    2.4046    5.5539 C   0  0  0  0  0  0  0  0  0  0  0  0
   -0.9456    0.0346    5.8970 C   0  0  0  0  0  0  0  0  0  0  0  0
    2.0418   -5.7495   -2.5977 C   0  0  0  0  0  0  0  0  0  0  0  0
    3.6148   -4.5152   -4.0541 C   0  0  0  0  0  0  0  0  0  0  0  0
  1  2  1  0  0  0  0
  1 10  1  0  0  0  0
  1 16  1  0  0  0  0
  2  4  2  0  0  0  0
  2  9  1  0  0  0  0
  4  6  1  0  0  0  0
  6  7  2  0  0  0  0
  7  8  1  0  0  0  0
  8  9  2  0  0  0  0
 10 11  2  0  0  0  0
 10 15  1  0  0  0  0
 11 12  1  0  0  0  0
 12 13  2  0  0  0  0
 13  3  1  0  0  0  0
 13 14  1  0  0  0  0
 14 15  2  0  0  0  0
 16 17  2  0  0  0  0
 16 21  1  0  0  0  0
 17 18  1  0  0  0  0
 18 19  2  0  0  0  0
 19  5  1  0  0  0  0
 19 20  1  0  0  0  0
 20 21  2  0  0  0  0
 22  3  1  0  0  0  0
 23  3  1  0  0  0  0
 24  5  1  0  0  0  0
 25  5  1  0  0  0  0
M  END
>  <CHROM.1>
10.36095918,-156.06297895,5.69039589,159.93826836,-154.49097901,0.83840700
0.04044961,-0.19027597,-3.10233552,-1.21855380,2.56970765

>  <Name>
1q8n_lig

>  <RI>
0

>  <Rbt.Current_Directory>
/home/itssahil/PROJECTS/Mol_Feturizer/New_Systems/rnas/1q8n

>  <Rbt.Executable>
rbdock ($Id: //depot/dev/client3/rdock/2013.1/src/exe/rbdock.cxx#4 $)

>  <Rbt.Library>
libRbt.so (2013.1, Build901 2013/11/27)

>  <Rbt.Parameter_File>
/export/apps/rDock/src/rDock_2013.1_src/data/scripts/dock_solv.prm

>  <Rbt.Receptor>
prm/blind_docking_20.prm

>  <SCORE>
-49.2263

>  <SCORE.INTER>
-50.9768

>  <SCORE.INTER.CONST>
1

>  <SCORE.INTER.POLAR>
0

>  <SCORE.INTER.ROT>
5

>  <SCORE.INTER.SOLV>
9.51625

>  <SCORE.INTER.VDW>
-44.0899

>  <SCORE.INTER.norm>
-2.03907

>  <SCORE.INTRA>
1.75045

>  <SCORE.INTRA.DIHEDRAL>
3.87579

>  <SCORE.INTRA.DIHEDRAL.0>
2.1627

>  <SCORE.INTRA.POLAR>
0

>  <SCORE.INTRA.POLAR.0>
0

>  <SCORE.INTRA.REPUL>
0

>  <SCORE.INTRA.REPUL.0>
0

>  <SCORE.INTRA.SOLV>
0.0651159

>  <SCORE.INTRA.SOLV.lig_0>
-5.95779

>  <SCORE.INTRA.VDW>
-0.220002

>  <SCORE.INTRA.VDW.0>
3.81702

>  <SCORE.INTRA.norm>
0.0700181

>  <SCORE.RESTR>
0

>  <SCORE.RESTR.CAVITY>
0

>  <SCORE.RESTR.norm>
0

>  <SCORE.SYSTEM>
0

>  <SCORE.SYSTEM.CONST>
0

>  <SCORE.SYSTEM.DIHEDRAL>
0

>  <SCORE.SYSTEM.SOLV>
0

>  <SCORE.SYSTEM.norm>
0

>  <SCORE.heavy>
25

>  <SCORE.norm>
-1.96905

>  <RMSD>
1.798

$$$$
1q8n_lig
 OpenBabel11021811403D
libRbt.so/2013.1/901 2013/11/27
 25 27  0  0  0  0  0  0  0  0999 V2000
    0.8410    0.7019   -0.6455 C   0  0  0  0  0  0  0  0  0  0  0  0
    0.8690    2.0603   -1.5508 C   0  0  0  0  0  0  0  0  0  0  0  0
   -0.9709    1.1331    5.0072 N   0  0  0  0  0  0  0  0  0  0  0  0
    0.7095    3.3038   -1.0378 C   0  0  0  0  0  0  0  0  0  0  0  0
    2.6066   -4.4897   -3.0629 N   0  0  0  0  0  0  0  0  0  0  0  0
    0.7358    4.5110   -1.8957 C   0  0  0  0  0  0  0  0  0  0  0  0
    0.9247    4.3831   -3.2290 C   0  0  0  0  0  0  0  0  0  0  0  0
    1.1036    3.0668   -3.7958 C   0  0  0  0  0  0  0  0  0  0  0  0
    1.0760    1.9859   -3.0121 C   0  0  0  0  0  0  0  0  0  0  0  0
    0.3461    0.8150    0.9045 C   0  0  0  0  0  0  0  0  0  0  0  0
    0.7323   -0.0880    1.8296 C   0  0  0  0  0  0  0  0  0  0  0  0
    0.2902   -0.0004    3.2490 C   0  0  0  0  0  0  0  0  0  0  0  0
   -0.5246    1.0115    3.6508 C   0  0  0  0  0  0  0  0  0  0  0  0
   -0.9534    2.0076    2.6509 C   0  0  0  0  0  0  0  0  0  0  0  0
   -0.5476    1.9128    1.3770 C   0  0  0  0  0  0  0  0  0  0  0  0
    1.3004   -0.7670   -1.2621 C   0  0  0  0  0  0  0  0  0  0  0  0
    1.8777   -0.8481   -2.6484 C   0  0  0  0  0  0  0  0  0  0  0  0
    2.2758   -1.9978   -3.1998 C   0  0  0  0  0  0  0  0  0  0  0  0
    2.1663   -3.2638   -2.4656 C   0  0  0  0  0  0  0  0  0  0  0  0
    1.6492   -3.2476   -1.2195 C   0  0  0  0  0  0  0  0  0  0  0  0
    1.1997   -1.9611   -0.5888 C   0  0  0  0  0  0  0  0  0  0  0  0
   -1.4751    2.3630    5.5380 C   0  0  0  0  0  0  0  0  0  0  0  0
   -0.9237    0.0039    5.8835 C   0  0  0  0  0  0  0  0  0  0  0  0
    3.5959   -4.4758   -4.1019 C   0  0  0  0  0  0  0  0  0  0  0  0
    2.0765   -5.7650   -2.6362 C   0  0  0  0  0  0  0  0  0  0  0  0
  1  2  1  0  0  0  0
  1 10  1  0  0  0  0
  1 16  1  0  0  0  0
  2  4  2  0  0  0  0
  2  9  1  0  0  0  0
  4  6  1  0  0  0  0
  6  7  2  0  0  0  0
  7  8  1  0  0  0  0
  8  9  2  0  0  0  0
 10 11  2  0  0  0  0
 10 15  1  0  0  0  0
 11 12  1  0  0  0  0
 12 13  2  0  0  0  0
 13  3  1  0  0  0  0
 13 14  1  0  0  0  0
 14 15  2  0  0  0  0
 16 17  2  0  0  0  0
 16 21  1  0  0  0  0
 17 18  1  0  0  0  0
 18 19  2  0  0  0  0
 19  5  1  0  0  0  0
 19 20  1  0  0  0  0
 20 21  2  0  0  0  0
 22  3  1  0  0  0  0
 23  3  1  0  0  0  0
 24  5  1  0  0  0  0
 25  5  1  0  0  0  0
M  END
>  <CHROM.1>
10.83566338,-155.71762862,5.66820578,160.79348623,24.29146646,0.83872338
0.03515885,-0.21007152,-3.10504296,-1.21807697,2.57192688

>  <Name>
1q8n_lig

>  <RI>
0

>  <Rbt.Current_Directory>
/home/itssahil/PROJECTS/Mol_Feturizer/New_Systems/rnas/1q8n

>  <Rbt.Executable>
rbdock ($Id: //depot/dev/client3/rdock/2013.1/src/exe/rbdock.cxx#4 $)

>  <Rbt.Library>
libRbt.so (2013.1, Build901 2013/11/27)

>  <Rbt.Parameter_File>
/export/apps/rDock/src/rDock_2013.1_src/data/scripts/dock_solv.prm

>  <Rbt.Receptor>
prm/pocket_docking_5.prm

>  <SCORE>
-49.2106

>  <SCORE.INTER>
-50.8374

>  <SCORE.INTER.CONST>
1

>  <SCORE.INTER.POLAR>
0

>  <SCORE.INTER.ROT>
5

>  <SCORE.INTER.SOLV>
9.50615

>  <SCORE.INTER.VDW>
-43.9936

>  <SCORE.INTER.norm>
-2.0335

>  <SCORE.INTRA>
1.62677

>  <SCORE.INTRA.DIHEDRAL>
3.54721

>  <SCORE.INTRA.DIHEDRAL.0>
2.1627

>  <SCORE.INTRA.POLAR>
0

>  <SCORE.INTRA.POLAR.0>
0

>  <SCORE.INTRA.REPUL>
0

>  <SCORE.INTRA.REPUL.0>
0

>  <SCORE.INTRA.SOLV>
0.0646528

>  <SCORE.INTRA.SOLV.lig_0>
-5.95779

>  <SCORE.INTRA.VDW>
-0.179165

>  <SCORE.INTRA.VDW.0>
3.81702

>  <SCORE.INTRA.norm>
0.0650707

>  <SCORE.RESTR>
0

>  <SCORE.RESTR.CAVITY>
0

>  <SCORE.RESTR.norm>
0

>  <SCORE.SYSTEM>
0

>  <SCORE.SYSTEM.CONST>
0

>  <SCORE.SYSTEM.DIHEDRAL>
0

>  <SCORE.SYSTEM.SOLV>
0

>  <SCORE.SYSTEM.norm>
0

>  <SCORE.heavy>
25

>  <SCORE.norm>
-1.96842

>  <RMSD>
1.798

$$$$
1q8n_lig
 OpenBabel11021811403D
libRbt.so/2013.1/901 2013/11/27
 25 27  0  0  0  0  0  0  0  0999 V2000
    0.8696    0.7504   -0.8074 C   0  0  0  0  0  0  0  0  0  0  0  0
    0.8951    2.0685   -1.7704 C   0  0  0  0  0  0  0  0  0  0  0  0
    2.6784   -4.4356   -3.0999 N   0  0  0  0  0  0  0  0  0  0  0  0
    1.0551    2.0094   -3.1142 C   0  0  0  0  0  0  0  0  0  0  0  0
   -0.8216    0.8633    4.9406 N   0  0  0  0  0  0  0  0  0  0  0  0
    1.0783    3.2309   -3.9517 C   0  0  0  0  0  0  0  0  0  0  0  0
    0.9355    4.4450   -3.3724 C   0  0  0  0  0  0  0  0  0  0  0  0
    0.7569    4.5302   -1.9417 C   0  0  0  0  0  0  0  0  0  0  0  0
    0.7396    3.4218   -1.1973 C   0  0  0  0  0  0  0  0  0  0  0  0
    1.3646   -0.6731   -1.4308 C   0  0  0  0  0  0  0  0  0  0  0  0
    1.1485   -1.8348   -0.7795 C   0  0  0  0  0  0  0  0  0  0  0  0
    1.5934   -3.1436   -1.3336 C   0  0  0  0  0  0  0  0  0  0  0  0
    2.2360   -3.1970   -2.5309 C   0  0  0  0  0  0  0  0  0  0  0  0
    2.4773   -1.9351   -3.2558 C   0  0  0  0  0  0  0  0  0  0  0  0
    2.0718   -0.7655   -2.7417 C   0  0  0  0  0  0  0  0  0  0  0  0
    0.3568    0.8303    0.7672 C   0  0  0  0  0  0  0  0  0  0  0  0
    0.8178   -0.2040    1.7568 C   0  0  0  0  0  0  0  0  0  0  0  0
    0.4496   -0.1912    3.0407 C   0  0  0  0  0  0  0  0  0  0  0  0
   -0.4418    0.8532    3.5590 C   0  0  0  0  0  0  0  0  0  0  0  0
   -0.8896    1.8023    2.7111 C   0  0  0  0  0  0  0  0  0  0  0  0
   -0.4812    1.7990    1.2660 C   0  0  0  0  0  0  0  0  0  0  0  0
    2.1410   -5.6982   -2.6930 C   0  0  0  0  0  0  0  0  0  0  0  0
    3.6892   -4.4415   -4.1116 C   0  0  0  0  0  0  0  0  0  0  0  0
   -0.6945   -0.3238    5.7364 C   0  0  0  0  0  0  0  0  0  0  0  0
   -1.3335    2.0600    5.5693 C   0  0  0  0  0  0  0  0  0  0  0  0
  1  2  1  0  0  0  0
  1 10  1  0  0  0  0
  1 16  1  0  0  0  0
  2  4  2  0  0  0  0
  2  9  1  0  0  0  0
  4  6  1  0  0  0  0
  6  7  2  0  0  0  0
  7  8  1  0  0  0  0
  8  9  2  0  0  0  0
 10 11  2  0  0  0  0
 10 15  1  0  0  0  0
 11 12  1  0  0  0  0
 12 13  2  0  0  0  0
 13  3  1  0  0  0  0
 13 14  1  0  0  0  0
 14 15  2  0  0  0  0
 16 17  2  0  0  0  0
 16 21  1  0  0  0  0
 17 18  1  0  0  0  0
 18 19  2  0  0  0  0
 19  5  1  0  0  0  0
 19 20  1  0  0  0  0
 20 21  2  0  0  0  0
 22  3  1  0  0  0  0
 23  3  1  0  0  0  0
 24  5  1  0  0  0  0
 25  5  1  0  0  0  0
M  END
>  <CHROM.1>
13.13941196,-168.04226148,-156.57648754,19.66426128,-19.17267061,0.90925595
0.01015393,-0.30883365,0.03543080,1.21660179,-0.60121684

>  <Name>
1q8n_lig

>  <RI>
0

>  <Rbt.Current_Directory>
/home/itssahil/PROJECTS/Mol_Feturizer/New_Systems/rnas/1q8n

>  <Rbt.Executable>
rbdock ($Id: //depot/dev/client3/rdock/2013.1/src/exe/rbdock.cxx#4 $)

>  <Rbt.Library>
libRbt.so (2013.1, Build901 2013/11/27)

>  <Rbt.Parameter_File>
/export/apps/rDock/src/rDock_2013.1_src/data/scripts/dock_solv.prm

>  <Rbt.Receptor>
prm/pocket_docking_5.prm

>  <SCORE>
-48.8136

>  <SCORE.INTER>
-50.2008

>  <SCORE.INTER.CONST>
1

>  <SCORE.INTER.POLAR>
0

>  <SCORE.INTER.ROT>
5

>  <SCORE.INTER.SOLV>
9.55043

>  <SCORE.INTER.VDW>
-43.584

>  <SCORE.INTER.norm>
-2.00803

>  <SCORE.INTRA>
1.38717

>  <SCORE.INTRA.DIHEDRAL>
2.83117

>  <SCORE.INTRA.DIHEDRAL.0>
2.1627

>  <SCORE.INTRA.POLAR>
0

>  <SCORE.INTRA.POLAR.0>
0

>  <SCORE.INTRA.REPUL>
0

>  <SCORE.INTRA.REPUL.0>
0

>  <SCORE.INTRA.SOLV>
0.0613862

>  <SCORE.INTRA.SOLV.lig_0>
-5.95779

>  <SCORE.INTRA.VDW>
-0.0591077

>  <SCORE.INTRA.VDW.0>
3.81702

>  <SCORE.INTRA.norm>
0.0554868

>  <SCORE.RESTR>
0

>  <SCORE.RESTR.CAVITY>
0

>  <SCORE.RESTR.norm>
0

>  <SCORE.SYSTEM>
0

>  <SCORE.SYSTEM.CONST>
0

>  <SCORE.SYSTEM.DIHEDRAL>
0

>  <SCORE.SYSTEM.SOLV>
0

>  <SCORE.SYSTEM.norm>
0

>  <SCORE.heavy>
25

>  <SCORE.norm>
-1.95254

>  <RMSD>
1.802

$$$$
1q8n_lig
 OpenBabel11021811403D
libRbt.so/2013.1/901 2013/11/27
 25 27  0  0  0  0  0  0  0  0999 V2000
    0.8638    0.7611   -0.8035 C   0  0  0  0  0  0  0  0  0  0  0  0
    0.8854    2.0797   -1.7659 C   0  0  0  0  0  0  0  0  0  0  0  0
    2.6838   -4.4194   -3.0995 N   0  0  0  0  0  0  0  0  0  0  0  0
    1.0445    2.0216   -3.1099 C   0  0  0  0  0  0  0  0  0  0  0  0
   -0.8258    0.8659    4.9452 N   0  0  0  0  0  0  0  0  0  0  0  0
    1.0641    3.2435   -3.9468 C   0  0  0  0  0  0  0  0  0  0  0  0
    0.9189    4.4570   -3.3668 C   0  0  0  0  0  0  0  0  0  0  0  0
    0.7413    4.5411   -1.9359 C   0  0  0  0  0  0  0  0  0  0  0  0
    0.7272    3.4323   -1.1920 C   0  0  0  0  0  0  0  0  0  0  0  0
    1.3621   -0.6609   -1.4278 C   0  0  0  0  0  0  0  0  0  0  0  0
    1.1991   -1.8171   -0.7517 C   0  0  0  0  0  0  0  0  0  0  0  0
    1.6479   -3.1244   -1.3062 C   0  0  0  0  0  0  0  0  0  0  0  0
    2.2397   -3.1820   -2.5292 C   0  0  0  0  0  0  0  0  0  0  0  0
    2.4227   -1.9263   -3.2813 C   0  0  0  0  0  0  0  0  0  0  0  0
    2.0145   -0.7579   -2.7665 C   0  0  0  0  0  0  0  0  0  0  0  0
    0.3516    0.8389    0.7714 C   0  0  0  0  0  0  0  0  0  0  0  0
    0.8095   -0.1993    1.7585 C   0  0  0  0  0  0  0  0  0  0  0  0
    0.4416   -0.1882    3.0425 C   0  0  0  0  0  0  0  0  0  0  0  0
   -0.4463    0.8578    3.5634 C   0  0  0  0  0  0  0  0  0  0  0  0
   -0.8912    1.8104    2.7179 C   0  0  0  0  0  0  0  0  0  0  0  0
   -0.4831    1.8091    1.2727 C   0  0  0  0  0  0  0  0  0  0  0  0
    2.1556   -5.6839   -2.6866 C   0  0  0  0  0  0  0  0  0  0  0  0
    3.6872   -4.4222   -4.1186 C   0  0  0  0  0  0  0  0  0  0  0  0
   -1.3290    2.0646    5.5520 C   0  0  0  0  0  0  0  0  0  0  0  0
   -0.7195   -0.3238    5.7594 C   0  0  0  0  0  0  0  0  0  0  0  0
  1  2  1  0  0  0  0
  1 10  1  0  0  0  0
  1 16  1  0  0  0  0
  2  4  2  0  0  0  0
  2  9  1  0  0  0  0
  4  6  1  0  0  0  0
  6  7  2  0  0  0  0
  7  8  1  0  0  0  0
  8  9  2  0  0  0  0
 10 11  2  0  0  0  0
 10 15  1  0  0  0  0
 11 12  1  0  0  0  0
 12 13  2  0  0  0  0
 13  3  1  0  0  0  0
 13 14  1  0  0  0  0
 14 15  2  0  0  0  0
 16 17  2  0  0  0  0
 16 21  1  0  0  0  0
 17 18  1  0  0  0  0
 18 19  2  0  0  0  0
 19  5  1  0  0  0  0
 19 20  1  0  0  0  0
 20 21  2  0  0  0  0
 22  3  1  0  0  0  0
 23  3  1  0  0  0  0
 24  5  1  0  0  0  0
 25  5  1  0  0  0  0
M  END
>  <CHROM.1>
13.16045411,-170.82664554,-156.92908692,22.02019112,160.61909406,0.90425858
0.02038830,-0.30569293,0.04494194,1.21589099,-0.60940974

>  <Name>
1q8n_lig

>  <RI>
0

>  <Rbt.Current_Directory>
/home/itssahil/PROJECTS/Mol_Feturizer/New_Systems/rnas/1q8n

>  <Rbt.Executable>
rbdock ($Id: //depot/dev/client3/rdock/2013.1/src/exe/rbdock.cxx#4 $)

>  <Rbt.Library>
libRbt.so (2013.1, Build901 2013/11/27)

>  <Rbt.Parameter_File>
/export/apps/rDock/src/rDock_2013.1_src/data/scripts/dock_solv.prm

>  <Rbt.Receptor>
prm/blind_docking_100.prm

>  <SCORE>
-48.6879

>  <SCORE.INTER>
-50.2908

>  <SCORE.INTER.CONST>
1

>  <SCORE.INTER.POLAR>
0

>  <SCORE.INTER.ROT>
5

>  <SCORE.INTER.SOLV>
9.55016

>  <SCORE.INTER.VDW>
-43.6439

>  <SCORE.INTER.norm>
-2.01163

>  <SCORE.INTRA>
1.60286

>  <SCORE.INTRA.DIHEDRAL>
3.21002

>  <SCORE.INTRA.DIHEDRAL.0>
2.1627

>  <SCORE.INTRA.POLAR>
0

>  <SCORE.INTRA.POLAR.0>
0

>  <SCORE.INTRA.REPUL>
0

>  <SCORE.INTRA.REPUL.0>
0

>  <SCORE.INTRA.SOLV>
0.0629809

>  <SCORE.INTRA.SOLV.lig_0>
-5.95779

>  <SCORE.INTRA.VDW>
-0.0336443

>  <SCORE.INTRA.VDW.0>
3.81702

>  <SCORE.INTRA.norm>
0.0641142

>  <SCORE.RESTR>
0

>  <SCORE.RESTR.CAVITY>
0

>  <SCORE.RESTR.norm>
0

>  <SCORE.SYSTEM>
0

>  <SCORE.SYSTEM.CONST>
0

>  <SCORE.SYSTEM.DIHEDRAL>
0

>  <SCORE.SYSTEM.SOLV>
0

>  <SCORE.SYSTEM.norm>
0

>  <SCORE.heavy>
25

>  <SCORE.norm>
-1.94752

>  <RMSD>
1.804

$$$$
1q8n_lig
 OpenBabel11021811403D
libRbt.so/2013.1/901 2013/11/27
 25 27  0  0  0  0  0  0  0  0999 V2000
    0.8554    0.7034   -0.5985 C   0  0  0  0  0  0  0  0  0  0  0  0
    0.8540    2.0292   -1.5513 C   0  0  0  0  0  0  0  0  0  0  0  0
    2.6062   -4.4623   -2.9801 N   0  0  0  0  0  0  0  0  0  0  0  0
    0.7523    3.2927   -1.0739 C   0  0  0  0  0  0  0  0  0  0  0  0
   -1.0007    1.1256    5.0839 N   0  0  0  0  0  0  0  0  0  0  0  0
    0.7490    4.4690   -1.9740 C   0  0  0  0  0  0  0  0  0  0  0  0
    0.8512    4.2916   -3.3111 C   0  0  0  0  0  0  0  0  0  0  0  0
    0.9674    2.9530   -3.8409 C   0  0  0  0  0  0  0  0  0  0  0  0
    0.9673    1.9004   -3.0192 C   0  0  0  0  0  0  0  0  0  0  0  0
    1.3345   -0.7146   -1.2464 C   0  0  0  0  0  0  0  0  0  0  0  0
    1.1177   -1.8837   -0.6086 C   0  0  0  0  0  0  0  0  0  0  0  0
    1.5482   -3.1876   -1.1850 C   0  0  0  0  0  0  0  0  0  0  0  0
    2.1779   -3.2287   -2.3897 C   0  0  0  0  0  0  0  0  0  0  0  0
    2.4199   -1.9587   -3.0998 C   0  0  0  0  0  0  0  0  0  0  0  0
    2.0275   -0.7937   -2.5657 C   0  0  0  0  0  0  0  0  0  0  0  0
    0.3851    0.7702    0.9899 C   0  0  0  0  0  0  0  0  0  0  0  0
   -0.4960    1.8938    1.4619 C   0  0  0  0  0  0  0  0  0  0  0  0
   -0.9178    2.0004    2.7249 C   0  0  0  0  0  0  0  0  0  0  0  0
   -0.5335    1.0071    3.7345 C   0  0  0  0  0  0  0  0  0  0  0  0
    0.2615   -0.0185    3.3647 C   0  0  0  0  0  0  0  0  0  0  0  0
    0.7405   -0.1495    1.9476 C   0  0  0  0  0  0  0  0  0  0  0  0
    3.5686   -4.5089   -4.0385 C   0  0  0  0  0  0  0  0  0  0  0  0
    2.0721   -5.7051   -2.5159 C   0  0  0  0  0  0  0  0  0  0  0  0
   -1.4720    2.3865    5.5801 C   0  0  0  0  0  0  0  0  0  0  0  0
   -1.0165   -0.0125    5.9750 C   0  0  0  0  0  0  0  0  0  0  0  0
  1  2  1  0  0  0  0
  1 10  1  0  0  0  0
  1 16  1  0  0  0  0
  2  4  2  0  0  0  0
  2  9  1  0  0  0  0
  4  6  1  0  0  0  0
  6  7  2  0  0  0  0
  7  8  1  0  0  0  0
  8  9  2  0  0  0  0
 10 11  2  0  0  0  0
 10 15  1  0  0  0  0
 11 12  1  0  0  0  0
 12 13  2  0  0  0  0
 13  3  1  0  0  0  0
 13 14  1  0  0  0  0
 14 15  2  0  0  0  0
 16 17  2  0  0  0  0
 16 21  1  0  0  0  0
 17 18  1  0  0  0  0
 18 19  2  0  0  0  0
 19  5  1  0  0  0  0
 19 20  1  0  0  0  0
 20 21  2  0  0  0  0
 22  3  1  0  0  0  0
 23  3  1  0  0  0  0
 24  5  1  0  0  0  0
 25  5  1  0  0  0  0
M  END
>  <CHROM.1>
-165.66533347,-166.95880707,21.71154270,-162.65875896,-20.01630647,0.83135893
0.02925459,-0.16412475,0.01455884,1.21590283,-0.59733489

>  <Name>
1q8n_lig

>  <RI>
0

>  <Rbt.Current_Directory>
/home/itssahil/PROJECTS/Mol_Feturizer/New_Systems/rnas/1q8n

>  <Rbt.Executable>
rbdock ($Id: //depot/dev/client3/rdock/2013.1/src/exe/rbdock.cxx#4 $)

>  <Rbt.Library>
libRbt.so (2013.1, Build901 2013/11/27)

>  <Rbt.Parameter_File>
/export/apps/rDock/src/rDock_2013.1_src/data/scripts/dock_solv.prm

>  <Rbt.Receptor>
prm/pocket_docking_5.prm

>  <SCORE>
-48.4264

>  <SCORE.INTER>
-49.8692

>  <SCORE.INTER.CONST>
1

>  <SCORE.INTER.POLAR>
0

>  <SCORE.INTER.ROT>
5

>  <SCORE.INTER.SOLV>
9.36894

>  <SCORE.INTER.VDW>
-43.3025

>  <SCORE.INTER.norm>
-1.99477

>  <SCORE.INTRA>
1.44279

>  <SCORE.INTRA.DIHEDRAL>
2.63531

>  <SCORE.INTRA.DIHEDRAL.0>
2.1627

>  <SCORE.INTRA.POLAR>
0

>  <SCORE.INTRA.POLAR.0>
0

>  <SCORE.INTRA.REPUL>
0

>  <SCORE.INTRA.REPUL.0>
0

>  <SCORE.INTRA.SOLV>
0.0623684

>  <SCORE.INTRA.SOLV.lig_0>
-5.95779

>  <SCORE.INTRA.VDW>
0.0939498

>  <SCORE.INTRA.VDW.0>
3.81702

>  <SCORE.INTRA.norm>
0.0577115

>  <SCORE.RESTR>
0

>  <SCORE.RESTR.CAVITY>
0

>  <SCORE.RESTR.norm>
0

>  <SCORE.SYSTEM>
0

>  <SCORE.SYSTEM.CONST>
0

>  <SCORE.SYSTEM.DIHEDRAL>
0

>  <SCORE.SYSTEM.SOLV>
0

>  <SCORE.SYSTEM.norm>
0

>  <SCORE.heavy>
25

>  <SCORE.norm>
-1.93706

>  <RMSD>
1.805

$$$$
1q8n_lig
 OpenBabel11021811413D
libRbt.so/2013.1/901 2013/11/27
 25 27  0  0  0  0  0  0  0  0999 V2000
    0.8431    0.6738   -0.6719 C   0  0  0  0  0  0  0  0  0  0  0  0
    0.8446    2.0266   -1.5859 C   0  0  0  0  0  0  0  0  0  0  0  0
   -0.9003    1.0822    5.0040 N   0  0  0  0  0  0  0  0  0  0  0  0
    0.7432    3.2759   -1.0722 C   0  0  0  0  0  0  0  0  0  0  0  0
    2.6570   -4.5106   -3.0687 N   0  0  0  0  0  0  0  0  0  0  0  0
    0.7427    4.4778   -1.9378 C   0  0  0  0  0  0  0  0  0  0  0  0
    0.8472    4.3390   -3.2794 C   0  0  0  0  0  0  0  0  0  0  0  0
    0.9631    3.0163   -3.8475 C   0  0  0  0  0  0  0  0  0  0  0  0
    0.9605    1.9403   -3.0566 C   0  0  0  0  0  0  0  0  0  0  0  0
    0.3637    0.7908    0.8827 C   0  0  0  0  0  0  0  0  0  0  0  0
   -0.4465    1.7892    1.2915 C   0  0  0  0  0  0  0  0  0  0  0  0
   -0.8942    1.9116    2.7066 C   0  0  0  0  0  0  0  0  0  0  0  0
   -0.4908    1.0016    3.6331 C   0  0  0  0  0  0  0  0  0  0  0  0
    0.3936   -0.0969    3.2005 C   0  0  0  0  0  0  0  0  0  0  0  0
    0.7885   -0.1912    1.9231 C   0  0  0  0  0  0  0  0  0  0  0  0
    1.3137   -0.7933   -1.2842 C   0  0  0  0  0  0  0  0  0  0  0  0
    1.9424   -0.8669   -2.6483 C   0  0  0  0  0  0  0  0  0  0  0  0
    2.3519   -2.0149   -3.1949 C   0  0  0  0  0  0  0  0  0  0  0  0
    2.2043   -3.2865   -2.4771 C   0  0  0  0  0  0  0  0  0  0  0  0
    1.6405   -3.2771   -1.2514 C   0  0  0  0  0  0  0  0  0  0  0  0
    1.1779   -1.9925   -0.6263 C   0  0  0  0  0  0  0  0  0  0  0  0
   -1.4134    2.2886    5.5783 C   0  0  0  0  0  0  0  0  0  0  0  0
   -0.8055   -0.0660    5.8513 C   0  0  0  0  0  0  0  0  0  0  0  0
    2.1183   -5.7679   -2.6358 C   0  0  0  0  0  0  0  0  0  0  0  0
    3.6559   -4.5145   -4.1135 C   0  0  0  0  0  0  0  0  0  0  0  0
  1  2  1  0  0  0  0
  1 10  1  0  0  0  0
  1 16  1  0  0  0  0
  2  4  2  0  0  0  0
  2  9  1  0  0  0  0
  4  6  1  0  0  0  0
  6  7  2  0  0  0  0
  7  8  1  0  0  0  0
  8  9  2  0  0  0  0
 10 11  2  0  0  0  0
 10 15  1  0  0  0  0
 11 12  1  0  0  0  0
 12 13  2  0  0  0  0
 13  3  1  0  0  0  0
 13 14  1  0  0  0  0
 14 15  2  0  0  0  0
 16 17  2  0  0  0  0
 16 21  1  0  0  0  0
 17 18  1  0  0  0  0
 18 19  2  0  0  0  0
 19  5  1  0  0  0  0
 19 20  1  0  0  0  0
 20 21  2  0  0  0  0
 22  3  1  0  0  0  0
 23  3  1  0  0  0  0
 24  5  1  0  0  0  0
 25  5  1  0  0  0  0
M  END
>  <CHROM.1>
14.29115706,23.77666239,8.82721710,-18.70533064,-157.75088695,0.86500811
-0.00994950,-0.22629935,3.12138855,-1.22159484,2.51941028

>  <Name>
1q8n_lig

>  <RI>
0

>  <Rbt.Current_Directory>
/home/itssahil/PROJECTS/Mol_Feturizer/New_Systems/rnas/1q8n

>  <Rbt.Executable>
rbdock ($Id: //depot/dev/client3/rdock/2013.1/src/exe/rbdock.cxx#4 $)

>  <Rbt.Library>
libRbt.so (2013.1, Build901 2013/11/27)

>  <Rbt.Parameter_File>
/export/apps/rDock/src/rDock_2013.1_src/data/scripts/dock_solv.prm

>  <Rbt.Receptor>
prm/pocket_docking_6.prm

>  <SCORE>
-48.5728

>  <SCORE.INTER>
-50.0465

>  <SCORE.INTER.CONST>
1

>  <SCORE.INTER.POLAR>
0

>  <SCORE.INTER.ROT>
5

>  <SCORE.INTER.SOLV>
9.36324

>  <SCORE.INTER.VDW>
-43.4187

>  <SCORE.INTER.norm>
-2.00186

>  <SCORE.INTRA>
1.47367

>  <SCORE.INTRA.DIHEDRAL>
3.14538

>  <SCORE.INTRA.DIHEDRAL.0>
2.1627

>  <SCORE.INTRA.POLAR>
0

>  <SCORE.INTRA.POLAR.0>
0

>  <SCORE.INTRA.REPUL>
0

>  <SCORE.INTRA.REPUL.0>
0

>  <SCORE.INTRA.SOLV>
0.0620945

>  <SCORE.INTRA.SOLV.lig_0>
-5.95779

>  <SCORE.INTRA.VDW>
-0.130067

>  <SCORE.INTRA.VDW.0>
3.81702

>  <SCORE.INTRA.norm>
0.0589468

>  <SCORE.RESTR>
0

>  <SCORE.RESTR.CAVITY>
0

>  <SCORE.RESTR.norm>
0

>  <SCORE.SYSTEM>
0

>  <SCORE.SYSTEM.CONST>
0

>  <SCORE.SYSTEM.DIHEDRAL>
0

>  <SCORE.SYSTEM.SOLV>
0

>  <SCORE.SYSTEM.norm>
0

>  <SCORE.heavy>
25

>  <SCORE.norm>
-1.94291

>  <RMSD>
1.806

$$$$
1q8n_lig
 OpenBabel11021811413D
libRbt.so/2013.1/901 2013/11/27
 25 27  0  0  0  0  0  0  0  0999 V2000
    0.8671    0.7393   -0.8170 C   0  0  0  0  0  0  0  0  0  0  0  0
    0.8897    2.0643   -1.7706 C   0  0  0  0  0  0  0  0  0  0  0  0
    2.6748   -4.4452   -3.1137 N   0  0  0  0  0  0  0  0  0  0  0  0
    1.0488    2.0151   -3.1149 C   0  0  0  0  0  0  0  0  0  0  0  0
   -0.8162    0.8097    4.9340 N   0  0  0  0  0  0  0  0  0  0  0  0
    1.0693    3.2426   -3.9436 C   0  0  0  0  0  0  0  0  0  0  0  0
    0.9248    4.4522   -3.3556 C   0  0  0  0  0  0  0  0  0  0  0  0
    0.7472    4.5269   -1.9242 C   0  0  0  0  0  0  0  0  0  0  0  0
    0.7324    3.4132   -1.1877 C   0  0  0  0  0  0  0  0  0  0  0  0
    1.3633   -0.6791   -1.4512 C   0  0  0  0  0  0  0  0  0  0  0  0
    2.0073   -0.7283   -2.6357 C   0  0  0  0  0  0  0  0  0  0  0  0
    2.4674   -2.0142   -3.2298 C   0  0  0  0  0  0  0  0  0  0  0  0
    2.2466   -3.1869   -2.5778 C   0  0  0  0  0  0  0  0  0  0  0  0
    1.5455   -3.1486   -1.2805 C   0  0  0  0  0  0  0  0  0  0  0  0
    1.1365   -1.9827   -0.7610 C   0  0  0  0  0  0  0  0  0  0  0  0
    0.3561    0.8072    0.7588 C   0  0  0  0  0  0  0  0  0  0  0  0
    0.8254   -0.2294    1.7420 C   0  0  0  0  0  0  0  0  0  0  0  0
    0.4590   -0.2260    3.0266 C   0  0  0  0  0  0  0  0  0  0  0  0
   -0.4384    0.8097    3.5518 C   0  0  0  0  0  0  0  0  0  0  0  0
   -0.8937    1.7605    2.7097 C   0  0  0  0  0  0  0  0  0  0  0  0
   -0.4874    1.7677    1.2641 C   0  0  0  0  0  0  0  0  0  0  0  0
    3.6462   -4.5386   -4.1607 C   0  0  0  0  0  0  0  0  0  0  0  0
    2.1314   -5.6659   -2.6042 C   0  0  0  0  0  0  0  0  0  0  0  0
   -1.2649    2.0186    5.5631 C   0  0  0  0  0  0  0  0  0  0  0  0
   -0.7629   -0.3980    5.7265 C   0  0  0  0  0  0  0  0  0  0  0  0
  1  2  1  0  0  0  0
  1 10  1  0  0  0  0
  1 16  1  0  0  0  0
  2  4  2  0  0  0  0
  2  9  1  0  0  0  0
  4  6  1  0  0  0  0
  6  7  2  0  0  0  0
  7  8  1  0  0  0  0
  8  9  2  0  0  0  0
 10 11  2  0  0  0  0
 10 15  1  0  0  0  0
 11 12  1  0  0  0  0
 12 13  2  0  0  0  0
 13  3  1  0  0  0  0
 13 14  1  0  0  0  0
 14 15  2  0  0  0  0
 16 17  2  0  0  0  0
 16 21  1  0  0  0  0
 17 18  1  0  0  0  0
 18 19  2  0  0  0  0
 19  5  1  0  0  0  0
 19 20  1  0  0  0  0
 20 21  2  0  0  0  0
 22  3  1  0  0  0  0
 23  3  1  0  0  0  0
 24  5  1  0  0  0  0
 25  5  1  0  0  0  0
M  END
>  <CHROM.1>
13.10523112,12.23707992,-156.26367967,16.72332695,157.37430768,0.90037325
-0.01602465,-0.30324756,0.02794327,1.21785227,-0.59558723

>  <Name>
1q8n_lig

>  <RI>
0

>  <Rbt.Current_Directory>
/home/itssahil/PROJECTS/Mol_Feturizer/New_Systems/rnas/1q8n

>  <Rbt.Executable>
rbdock ($Id: //depot/dev/client3/rdock/2013.1/src/exe/rbdock.cxx#4 $)

>  <Rbt.Library>
libRbt.so (2013.1, Build901 2013/11/27)

>  <Rbt.Parameter_File>
/export/apps/rDock/src/rDock_2013.1_src/data/scripts/dock_solv.prm

>  <Rbt.Receptor>
prm/pocket_docking_7.prm

>  <SCORE>
-48.7547

>  <SCORE.INTER>
-50.288

>  <SCORE.INTER.CONST>
1

>  <SCORE.INTER.POLAR>
0

>  <SCORE.INTER.ROT>
5

>  <SCORE.INTER.SOLV>
9.50211

>  <SCORE.INTER.VDW>
-43.626

>  <SCORE.INTER.norm>
-2.01152

>  <SCORE.INTRA>
1.53329

>  <SCORE.INTRA.DIHEDRAL>
2.9544

>  <SCORE.INTRA.DIHEDRAL.0>
2.1627

>  <SCORE.INTRA.POLAR>
0

>  <SCORE.INTRA.POLAR.0>
0

>  <SCORE.INTRA.REPUL>
0

>  <SCORE.INTRA.REPUL.0>
0

>  <SCORE.INTRA.SOLV>
0.0609979

>  <SCORE.INTRA.SOLV.lig_0>
-5.95779

>  <SCORE.INTRA.VDW>
0.0255892

>  <SCORE.INTRA.VDW.0>
3.81702

>  <SCORE.INTRA.norm>
0.0613316

>  <SCORE.RESTR>
0

>  <SCORE.RESTR.CAVITY>
0

>  <SCORE.RESTR.norm>
0

>  <SCORE.SYSTEM>
0

>  <SCORE.SYSTEM.CONST>
0

>  <SCORE.SYSTEM.DIHEDRAL>
0

>  <SCORE.SYSTEM.SOLV>
0

>  <SCORE.SYSTEM.norm>
0

>  <SCORE.heavy>
25

>  <SCORE.norm>
-1.95019

>  <RMSD>
1.817

$$$$
1q8n_lig
 OpenBabel11021811403D
libRbt.so/2013.1/901 2013/11/27
 25 27  0  0  0  0  0  0  0  0999 V2000
    0.8696    0.7303   -0.8278 C   0  0  0  0  0  0  0  0  0  0  0  0
    0.8908    2.0567   -1.7795 C   0  0  0  0  0  0  0  0  0  0  0  0
    2.6846   -4.4486   -3.1313 N   0  0  0  0  0  0  0  0  0  0  0  0
    1.0501    2.0096   -3.1239 C   0  0  0  0  0  0  0  0  0  0  0  0
   -0.8187    0.7871    4.9219 N   0  0  0  0  0  0  0  0  0  0  0  0
    1.0693    3.2382   -3.9509 C   0  0  0  0  0  0  0  0  0  0  0  0
    0.9234    4.4469   -3.3611 C   0  0  0  0  0  0  0  0  0  0  0  0
    0.7455    4.5193   -1.9297 C   0  0  0  0  0  0  0  0  0  0  0  0
    0.7318    3.4045   -1.1947 C   0  0  0  0  0  0  0  0  0  0  0  0
    1.3675   -0.6866   -1.4639 C   0  0  0  0  0  0  0  0  0  0  0  0
    1.9825   -0.7368   -2.6638 C   0  0  0  0  0  0  0  0  0  0  0  0
    2.4437   -2.0213   -3.2598 C   0  0  0  0  0  0  0  0  0  0  0  0
    2.2541   -3.1918   -2.5940 C   0  0  0  0  0  0  0  0  0  0  0  0
    1.5851   -3.1523   -1.2799 C   0  0  0  0  0  0  0  0  0  0  0  0
    1.1745   -1.9877   -0.7588 C   0  0  0  0  0  0  0  0  0  0  0  0
    0.3581    0.7954    0.7479 C   0  0  0  0  0  0  0  0  0  0  0  0
    0.8076   -0.2570    1.7237 C   0  0  0  0  0  0  0  0  0  0  0  0
    0.4399   -0.2568    3.0079 C   0  0  0  0  0  0  0  0  0  0  0  0
   -0.4394    0.7908    3.5401 C   0  0  0  0  0  0  0  0  0  0  0  0
   -0.8766    1.7560    2.7049 C   0  0  0  0  0  0  0  0  0  0  0  0
   -0.4687    1.7669    1.2597 C   0  0  0  0  0  0  0  0  0  0  0  0
    3.6632   -4.5395   -4.1718 C   0  0  0  0  0  0  0  0  0  0  0  0
    2.1362   -5.6705   -2.6299 C   0  0  0  0  0  0  0  0  0  0  0  0
   -1.2621    1.9956    5.5555 C   0  0  0  0  0  0  0  0  0  0  0  0
   -0.7722   -0.4241    5.7095 C   0  0  0  0  0  0  0  0  0  0  0  0
  1  2  1  0  0  0  0
  1 10  1  0  0  0  0
  1 16  1  0  0  0  0
  2  4  2  0  0  0  0
  2  9  1  0  0  0  0
  4  6  1  0  0  0  0
  6  7  2  0  0  0  0
  7  8  1  0  0  0  0
  8  9  2  0  0  0  0
 10 11  2  0  0  0  0
 10 15  1  0  0  0  0
 11 12  1  0  0  0  0
 12 13  2  0  0  0  0
 13  3  1  0  0  0  0
 13 14  1  0  0  0  0
 14 15  2  0  0  0  0
 16 17  2  0  0  0  0
 16 21  1  0  0  0  0
 17 18  1  0  0  0  0
 18 19  2  0  0  0  0
 19  5  1  0  0  0  0
 19 20  1  0  0  0  0
 20 21  2  0  0  0  0
 22  3  1  0  0  0  0
 23  3  1  0  0  0  0
 24  5  1  0  0  0  0
 25  5  1  0  0  0  0
M  END
>  <CHROM.1>
13.11173962,10.57467862,-157.41666588,18.80961858,158.14524230,0.90298696
-0.02651434,-0.31527030,0.03058138,1.21689289,-0.59641904

>  <Name>
1q8n_lig

>  <RI>
0

>  <Rbt.Current_Directory>
/home/itssahil/PROJECTS/Mol_Feturizer/New_Systems/rnas/1q8n

>  <Rbt.Executable>
rbdock ($Id: //depot/dev/client3/rdock/2013.1/src/exe/rbdock.cxx#4 $)

>  <Rbt.Library>
libRbt.so (2013.1, Build901 2013/11/27)

>  <Rbt.Parameter_File>
/export/apps/rDock/src/rDock_2013.1_src/data/scripts/dock_solv.prm

>  <Rbt.Receptor>
prm/blind_docking_20.prm

>  <SCORE>
-48.7431

>  <SCORE.INTER>
-50.3851

>  <SCORE.INTER.CONST>
1

>  <SCORE.INTER.POLAR>
0

>  <SCORE.INTER.ROT>
5

>  <SCORE.INTER.SOLV>
9.47421

>  <SCORE.INTER.VDW>
-43.6815

>  <SCORE.INTER.norm>
-2.01541

>  <SCORE.INTRA>
1.64198

>  <SCORE.INTRA.DIHEDRAL>
3.1046

>  <SCORE.INTRA.DIHEDRAL.0>
2.1627

>  <SCORE.INTRA.POLAR>
0

>  <SCORE.INTRA.POLAR.0>
0

>  <SCORE.INTRA.REPUL>
0

>  <SCORE.INTRA.REPUL.0>
0

>  <SCORE.INTRA.SOLV>
0.0628159

>  <SCORE.INTRA.SOLV.lig_0>
-5.95779

>  <SCORE.INTRA.VDW>
0.0582764

>  <SCORE.INTRA.VDW.0>
3.81702

>  <SCORE.INTRA.norm>
0.0656794

>  <SCORE.RESTR>
0

>  <SCORE.RESTR.CAVITY>
0

>  <SCORE.RESTR.norm>
0

>  <SCORE.SYSTEM>
0

>  <SCORE.SYSTEM.CONST>
0

>  <SCORE.SYSTEM.DIHEDRAL>
0

>  <SCORE.SYSTEM.SOLV>
0

>  <SCORE.SYSTEM.norm>
0

>  <SCORE.heavy>
25

>  <SCORE.norm>
-1.94973

>  <RMSD>
1.821

$$$$
1q8n_lig
 OpenBabel11021811403D
libRbt.so/2013.1/901 2013/11/27
 25 27  0  0  0  0  0  0  0  0999 V2000
    0.8690    0.7426   -0.8015 C   0  0  0  0  0  0  0  0  0  0  0  0
    0.8931    2.0672   -1.7556 C   0  0  0  0  0  0  0  0  0  0  0  0
    2.7017   -4.4220   -3.1230 N   0  0  0  0  0  0  0  0  0  0  0  0
    1.0523    2.0173   -3.0999 C   0  0  0  0  0  0  0  0  0  0  0  0
   -0.8419    0.8103    4.9414 N   0  0  0  0  0  0  0  0  0  0  0  0
    1.0742    3.2444   -3.9291 C   0  0  0  0  0  0  0  0  0  0  0  0
    0.9310    4.4544   -3.3415 C   0  0  0  0  0  0  0  0  0  0  0  0
    0.7532    4.5299   -1.9102 C   0  0  0  0  0  0  0  0  0  0  0  0
    0.7371    3.4164   -1.1733 C   0  0  0  0  0  0  0  0  0  0  0  0
    1.3708   -0.6751   -1.4328 C   0  0  0  0  0  0  0  0  0  0  0  0
    1.2111   -1.8349   -0.7622 C   0  0  0  0  0  0  0  0  0  0  0  0
    1.6631   -3.1383   -1.3231 C   0  0  0  0  0  0  0  0  0  0  0  0
    2.2546   -3.1886   -2.5466 C   0  0  0  0  0  0  0  0  0  0  0  0
    2.4340   -1.9287   -3.2927 C   0  0  0  0  0  0  0  0  0  0  0  0
    2.0230   -0.7639   -2.7722 C   0  0  0  0  0  0  0  0  0  0  0  0
    0.3509    0.8102    0.7719 C   0  0  0  0  0  0  0  0  0  0  0  0
    0.8062   -0.2335    1.7543 C   0  0  0  0  0  0  0  0  0  0  0  0
    0.4336   -0.2308    3.0370 C   0  0  0  0  0  0  0  0  0  0  0  0
   -0.4573    0.8111    3.5610 C   0  0  0  0  0  0  0  0  0  0  0  0
   -0.9001    1.7684    2.7197 C   0  0  0  0  0  0  0  0  0  0  0  0
   -0.4867    1.7765    1.2761 C   0  0  0  0  0  0  0  0  0  0  0  0
    3.6980   -4.4686   -4.1495 C   0  0  0  0  0  0  0  0  0  0  0  0
    2.1527   -5.6649   -2.6767 C   0  0  0  0  0  0  0  0  0  0  0  0
   -0.7570   -0.3936    5.7172 C   0  0  0  0  0  0  0  0  0  0  0  0
   -1.3167    2.0124    5.5887 C   0  0  0  0  0  0  0  0  0  0  0  0
  1  2  1  0  0  0  0
  1 10  1  0  0  0  0
  1 16  1  0  0  0  0
  2  4  2  0  0  0  0
  2  9  1  0  0  0  0
  4  6  1  0  0  0  0
  6  7  2  0  0  0  0
  7  8  1  0  0  0  0
  8  9  2  0  0  0  0
 10 11  2  0  0  0  0
 10 15  1  0  0  0  0
 11 12  1  0  0  0  0
 12 13  2  0  0  0  0
 13  3  1  0  0  0  0
 13 14  1  0  0  0  0
 14 15  2  0  0  0  0
 16 17  2  0  0  0  0
 16 21  1  0  0  0  0
 17 18  1  0  0  0  0
 18 19  2  0  0  0  0
 19  5  1  0  0  0  0
 19 20  1  0  0  0  0
 20 21  2  0  0  0  0
 22  3  1  0  0  0  0
 23  3  1  0  0  0  0
 24  5  1  0  0  0  0
 25  5  1  0  0  0  0
M  END
>  <CHROM.1>
13.41008353,-171.09718192,-156.91444459,-158.31986306,-20.99567574,0.90743632
-0.00240029,-0.30658991,0.03889911,1.21332514,-0.59821499

>  <Name>
1q8n_lig

>  <RI>
0

>  <Rbt.Current_Directory>
/home/itssahil/PROJECTS/Mol_Feturizer/New_Systems/rnas/1q8n

>  <Rbt.Executable>
rbdock ($Id: //depot/dev/client3/rdock/2013.1/src/exe/rbdock.cxx#4 $)

>  <Rbt.Library>
libRbt.so (2013.1, Build901 2013/11/27)

>  <Rbt.Parameter_File>
/export/apps/rDock/src/rDock_2013.1_src/data/scripts/dock_solv.prm

>  <Rbt.Receptor>
prm/pocket_docking_4.prm

>  <SCORE>
-48.8436

>  <SCORE.INTER>
-50.4319

>  <SCORE.INTER.CONST>
1

>  <SCORE.INTER.POLAR>
0

>  <SCORE.INTER.ROT>
5

>  <SCORE.INTER.SOLV>
9.55588

>  <SCORE.INTER.VDW>
-43.7399

>  <SCORE.INTER.norm>
-2.01728

>  <SCORE.INTRA>
1.58834

>  <SCORE.INTRA.DIHEDRAL>
3.39125

>  <SCORE.INTRA.DIHEDRAL.0>
2.1627

>  <SCORE.INTRA.POLAR>
0

>  <SCORE.INTRA.POLAR.0>
0

>  <SCORE.INTRA.REPUL>
0

>  <SCORE.INTRA.REPUL.0>
0

>  <SCORE.INTRA.SOLV>
0.062892

>  <SCORE.INTRA.SOLV.lig_0>
-5.95779

>  <SCORE.INTRA.VDW>
-0.138738

>  <SCORE.INTRA.VDW.0>
3.81702

>  <SCORE.INTRA.norm>
0.0635334

>  <SCORE.RESTR>
0

>  <SCORE.RESTR.CAVITY>
0

>  <SCORE.RESTR.norm>
0

>  <SCORE.SYSTEM>
0

>  <SCORE.SYSTEM.CONST>
0

>  <SCORE.SYSTEM.DIHEDRAL>
0

>  <SCORE.SYSTEM.SOLV>
0

>  <SCORE.SYSTEM.norm>
0

>  <SCORE.heavy>
25

>  <SCORE.norm>
-1.95374

>  <RMSD>
1.824

$$$$
1q8n_lig
 OpenBabel11021811413D
libRbt.so/2013.1/901 2013/11/27
 25 27  0  0  0  0  0  0  0  0999 V2000
    0.8547    0.6570   -0.6348 C   0  0  0  0  0  0  0  0  0  0  0  0
    0.8765    2.0188   -1.5350 C   0  0  0  0  0  0  0  0  0  0  0  0
   -0.9486    1.0609    5.0226 N   0  0  0  0  0  0  0  0  0  0  0  0
    0.6887    3.2578   -1.0207 C   0  0  0  0  0  0  0  0  0  0  0  0
    2.6329   -4.5195   -3.0751 N   0  0  0  0  0  0  0  0  0  0  0  0
    0.7104    4.4683   -1.8741 C   0  0  0  0  0  0  0  0  0  0  0  0
    0.9238    4.3482   -3.2045 C   0  0  0  0  0  0  0  0  0  0  0  0
    1.1330    3.0368   -3.7724 C   0  0  0  0  0  0  0  0  0  0  0  0
    1.1093    1.9529   -2.9929 C   0  0  0  0  0  0  0  0  0  0  0  0
    0.3621    0.7626    0.9165 C   0  0  0  0  0  0  0  0  0  0  0  0
    0.7520   -0.1432    1.8373 C   0  0  0  0  0  0  0  0  0  0  0  0
    0.3122   -0.0625    3.2578 C   0  0  0  0  0  0  0  0  0  0  0  0
   -0.5043    0.9459    3.6651 C   0  0  0  0  0  0  0  0  0  0  0  0
   -0.9372    1.9451    2.6700 C   0  0  0  0  0  0  0  0  0  0  0  0
   -0.5333    1.8564    1.3950 C   0  0  0  0  0  0  0  0  0  0  0  0
    1.3180   -0.8080   -1.2577 C   0  0  0  0  0  0  0  0  0  0  0  0
    1.8893   -0.8826   -2.6468 C   0  0  0  0  0  0  0  0  0  0  0  0
    2.2901   -2.0289   -3.2033 C   0  0  0  0  0  0  0  0  0  0  0  0
    2.1897   -3.2974   -2.4722 C   0  0  0  0  0  0  0  0  0  0  0  0
    1.6783   -3.2871   -1.2237 C   0  0  0  0  0  0  0  0  0  0  0  0
    1.2258   -2.0045   -0.5873 C   0  0  0  0  0  0  0  0  0  0  0  0
   -0.9302   -0.0468    5.9288 C   0  0  0  0  0  0  0  0  0  0  0  0
   -1.4312    2.3129    5.5175 C   0  0  0  0  0  0  0  0  0  0  0  0
    2.0825   -5.7763   -2.6556 C   0  0  0  0  0  0  0  0  0  0  0  0
    3.6337   -4.5219   -4.1181 C   0  0  0  0  0  0  0  0  0  0  0  0
  1  2  1  0  0  0  0
  1 10  1  0  0  0  0
  1 16  1  0  0  0  0
  2  4  2  0  0  0  0
  2  9  1  0  0  0  0
  4  6  1  0  0  0  0
  6  7  2  0  0  0  0
  7  8  1  0  0  0  0
  8  9  2  0  0  0  0
 10 11  2  0  0  0  0
 10 15  1  0  0  0  0
 11 12  1  0  0  0  0
 12 13  2  0  0  0  0
 13  3  1  0  0  0  0
 13 14  1  0  0  0  0
 14 15  2  0  0  0  0
 16 17  2  0  0  0  0
 16 21  1  0  0  0  0
 17 18  1  0  0  0  0
 18 19  2  0  0  0  0
 19  5  1  0  0  0  0
 19 20  1  0  0  0  0
 20 21  2  0  0  0  0
 22  3  1  0  0  0  0
 23  3  1  0  0  0  0
 24  5  1  0  0  0  0
 25  5  1  0  0  0  0
M  END
>  <CHROM.1>
9.55097677,-155.78150532,5.48643068,-19.93067671,-154.78295520,0.85475737
-0.00914069,-0.20246504,-3.11308271,-1.21763853,2.56766856

>  <Name>
1q8n_lig

>  <RI>
0

>  <Rbt.Current_Directory>
/home/itssahil/PROJECTS/Mol_Feturizer/New_Systems/rnas/1q8n

>  <Rbt.Executable>
rbdock ($Id: //depot/dev/client3/rdock/2013.1/src/exe/rbdock.cxx#4 $)

>  <Rbt.Library>
libRbt.so (2013.1, Build901 2013/11/27)

>  <Rbt.Parameter_File>
/export/apps/rDock/src/rDock_2013.1_src/data/scripts/dock_solv.prm

>  <Rbt.Receptor>
prm/pocket_docking_6.prm

>  <SCORE>
-49.2323

>  <SCORE.INTER>
-50.9776

>  <SCORE.INTER.CONST>
1

>  <SCORE.INTER.POLAR>
0

>  <SCORE.INTER.ROT>
5

>  <SCORE.INTER.SOLV>
9.46236

>  <SCORE.INTER.VDW>
-44.0725

>  <SCORE.INTER.norm>
-2.0391

>  <SCORE.INTRA>
1.74526

>  <SCORE.INTRA.DIHEDRAL>
3.80652

>  <SCORE.INTRA.DIHEDRAL.0>
2.1627

>  <SCORE.INTRA.POLAR>
0

>  <SCORE.INTRA.POLAR.0>
0

>  <SCORE.INTRA.REPUL>
0

>  <SCORE.INTRA.REPUL.0>
0

>  <SCORE.INTRA.SOLV>
0.0653646

>  <SCORE.INTRA.SOLV.lig_0>
-5.95779

>  <SCORE.INTRA.VDW>
-0.190684

>  <SCORE.INTRA.VDW.0>
3.81702

>  <SCORE.INTRA.norm>
0.0698103

>  <SCORE.RESTR>
0

>  <SCORE.RESTR.CAVITY>
0

>  <SCORE.RESTR.norm>
0

>  <SCORE.SYSTEM>
0

>  <SCORE.SYSTEM.CONST>
0

>  <SCORE.SYSTEM.DIHEDRAL>
0

>  <SCORE.SYSTEM.SOLV>
0

>  <SCORE.SYSTEM.norm>
0

>  <SCORE.heavy>
25

>  <SCORE.norm>
-1.96929

>  <RMSD>
1.832

$$$$
1q8n_lig
 OpenBabel11021811403D
libRbt.so/2013.1/901 2013/11/27
 25 27  0  0  0  0  0  0  0  0999 V2000
    0.8768    0.7408   -0.7902 C   0  0  0  0  0  0  0  0  0  0  0  0
    0.9014    2.0652   -1.7447 C   0  0  0  0  0  0  0  0  0  0  0  0
    2.7039   -4.4258   -3.1116 N   0  0  0  0  0  0  0  0  0  0  0  0
    1.0692    2.0154   -3.0879 C   0  0  0  0  0  0  0  0  0  0  0  0
   -0.8317    0.8091    4.9534 N   0  0  0  0  0  0  0  0  0  0  0  0
    1.0912    3.2423   -3.9174 C   0  0  0  0  0  0  0  0  0  0  0  0
    0.9394    4.4520   -3.3312 C   0  0  0  0  0  0  0  0  0  0  0  0
    0.7524    4.5272   -1.9010 C   0  0  0  0  0  0  0  0  0  0  0  0
    0.7363    3.4140   -1.1638 C   0  0  0  0  0  0  0  0  0  0  0  0
    1.3767   -0.6775   -1.4216 C   0  0  0  0  0  0  0  0  0  0  0  0
    1.1488   -1.8453   -0.7854 C   0  0  0  0  0  0  0  0  0  0  0  0
    1.5980   -3.1494   -1.3470 C   0  0  0  0  0  0  0  0  0  0  0  0
    2.2568   -3.1920   -2.5358 C   0  0  0  0  0  0  0  0  0  0  0  0
    2.5113   -1.9234   -3.2442 C   0  0  0  0  0  0  0  0  0  0  0  0
    2.1017   -0.7581   -2.7235 C   0  0  0  0  0  0  0  0  0  0  0  0
    0.3600    0.8093    0.7837 C   0  0  0  0  0  0  0  0  0  0  0  0
    0.8006   -0.2449    1.7615 C   0  0  0  0  0  0  0  0  0  0  0  0
    0.4283   -0.2421    3.0444 C   0  0  0  0  0  0  0  0  0  0  0  0
   -0.4475    0.8102    3.5730 C   0  0  0  0  0  0  0  0  0  0  0  0
   -0.8767    1.7773    2.7357 C   0  0  0  0  0  0  0  0  0  0  0  0
   -0.4635    1.7853    1.2921 C   0  0  0  0  0  0  0  0  0  0  0  0
    2.1572   -5.6911   -2.7260 C   0  0  0  0  0  0  0  0  0  0  0  0
    3.7291   -4.4240   -4.1087 C   0  0  0  0  0  0  0  0  0  0  0  0
   -0.7447   -0.3944    5.7295 C   0  0  0  0  0  0  0  0  0  0  0  0
   -1.3083    2.0107    5.6005 C   0  0  0  0  0  0  0  0  0  0  0  0
  1  2  1  0  0  0  0
  1 10  1  0  0  0  0
  1 16  1  0  0  0  0
  2  4  2  0  0  0  0
  2  9  1  0  0  0  0
  4  6  1  0  0  0  0
  6  7  2  0  0  0  0
  7  8  1  0  0  0  0
  8  9  2  0  0  0  0
 10 11  2  0  0  0  0
 10 15  1  0  0  0  0
 11 12  1  0  0  0  0
 12 13  2  0  0  0  0
 13  3  1  0  0  0  0
 13 14  1  0  0  0  0
 14 15  2  0  0  0  0
 16 17  2  0  0  0  0
 16 21  1  0  0  0  0
 17 18  1  0  0  0  0
 18 19  2  0  0  0  0
 19  5  1  0  0  0  0
 19 20  1  0  0  0  0
 20 21  2  0  0  0  0
 22  3  1  0  0  0  0
 23  3  1  0  0  0  0
 24  5  1  0  0  0  0
 25  5  1  0  0  0  0
M  END
>  <CHROM.1>
12.91282434,-167.29634345,-157.71929589,19.70960819,-20.04906305,0.91625879
-0.00336227,-0.29648871,0.03232846,1.21299366,-0.59140622

>  <Name>
1q8n_lig

>  <RI>
0

>  <Rbt.Current_Directory>
/home/itssahil/PROJECTS/Mol_Feturizer/New_Systems/rnas/1q8n

>  <Rbt.Executable>
rbdock ($Id: //depot/dev/client3/rdock/2013.1/src/exe/rbdock.cxx#4 $)

>  <Rbt.Library>
libRbt.so (2013.1, Build901 2013/11/27)

>  <Rbt.Parameter_File>
/export/apps/rDock/src/rDock_2013.1_src/data/scripts/dock_solv.prm

>  <Rbt.Receptor>
prm/pocket_docking_5.prm

>  <SCORE>
-48.8739

>  <SCORE.INTER>
-50.3113

>  <SCORE.INTER.CONST>
1

>  <SCORE.INTER.POLAR>
0

>  <SCORE.INTER.ROT>
5

>  <SCORE.INTER.SOLV>
9.57491

>  <SCORE.INTER.VDW>
-43.6658

>  <SCORE.INTER.norm>
-2.01245

>  <SCORE.INTRA>
1.43736

>  <SCORE.INTRA.DIHEDRAL>
2.96143

>  <SCORE.INTRA.DIHEDRAL.0>
2.1627

>  <SCORE.INTRA.POLAR>
0

>  <SCORE.INTRA.POLAR.0>
0

>  <SCORE.INTRA.REPUL>
0

>  <SCORE.INTRA.REPUL.0>
0

>  <SCORE.INTRA.SOLV>
0.0620106

>  <SCORE.INTRA.SOLV.lig_0>
-5.95779

>  <SCORE.INTRA.VDW>
-0.0743577

>  <SCORE.INTRA.VDW.0>
3.81702

>  <SCORE.INTRA.norm>
0.0574946

>  <SCORE.RESTR>
0

>  <SCORE.RESTR.CAVITY>
0

>  <SCORE.RESTR.norm>
0

>  <SCORE.SYSTEM>
0

>  <SCORE.SYSTEM.CONST>
0

>  <SCORE.SYSTEM.DIHEDRAL>
0

>  <SCORE.SYSTEM.SOLV>
0

>  <SCORE.SYSTEM.norm>
0

>  <SCORE.heavy>
25

>  <SCORE.norm>
-1.95496

>  <RMSD>
1.833

$$$$
1q8n_lig
 OpenBabel11021811403D
libRbt.so/2013.1/901 2013/11/27
 25 27  0  0  0  0  0  0  0  0999 V2000
    0.8719    0.7360   -0.7831 C   0  0  0  0  0  0  0  0  0  0  0  0
    0.8968    2.0589   -1.7396 C   0  0  0  0  0  0  0  0  0  0  0  0
    2.6804   -4.4382   -3.1022 N   0  0  0  0  0  0  0  0  0  0  0  0
    1.0719    2.0076   -3.0818 C   0  0  0  0  0  0  0  0  0  0  0  0
   -0.8187    0.8178    4.9656 N   0  0  0  0  0  0  0  0  0  0  0  0
    1.0939    3.2333   -3.9132 C   0  0  0  0  0  0  0  0  0  0  0  0
    0.9346    4.4433   -3.3298 C   0  0  0  0  0  0  0  0  0  0  0  0
    0.7397    4.5202   -1.9008 C   0  0  0  0  0  0  0  0  0  0  0  0
    0.7237    3.4080   -1.1618 C   0  0  0  0  0  0  0  0  0  0  0  0
    1.3667   -0.6844   -1.4139 C   0  0  0  0  0  0  0  0  0  0  0  0
    1.1266   -1.8518   -0.7816 C   0  0  0  0  0  0  0  0  0  0  0  0
    1.5710   -3.1579   -1.3427 C   0  0  0  0  0  0  0  0  0  0  0  0
    2.2376   -3.2026   -2.5271 C   0  0  0  0  0  0  0  0  0  0  0  0
    2.5055   -1.9342   -3.2311 C   0  0  0  0  0  0  0  0  0  0  0  0
    2.1001   -0.7673   -2.7110 C   0  0  0  0  0  0  0  0  0  0  0  0
    0.3599    0.8080    0.7921 C   0  0  0  0  0  0  0  0  0  0  0  0
    0.8075   -0.2411    1.7722 C   0  0  0  0  0  0  0  0  0  0  0  0
    0.4393   -0.2354    3.0562 C   0  0  0  0  0  0  0  0  0  0  0  0
   -0.4388    0.8155    3.5840 C   0  0  0  0  0  0  0  0  0  0  0  0
   -0.8743    1.7781    2.7448 C   0  0  0  0  0  0  0  0  0  0  0  0
   -0.4657    1.7827    1.2998 C   0  0  0  0  0  0  0  0  0  0  0  0
    2.1483   -5.7035   -2.6968 C   0  0  0  0  0  0  0  0  0  0  0  0
    3.6863   -4.4383   -4.1188 C   0  0  0  0  0  0  0  0  0  0  0  0
   -1.2935    2.0216    5.5852 C   0  0  0  0  0  0  0  0  0  0  0  0
   -0.7413   -0.3828    5.7670 C   0  0  0  0  0  0  0  0  0  0  0  0
  1  2  1  0  0  0  0
  1 10  1  0  0  0  0
  1 16  1  0  0  0  0
  2  4  2  0  0  0  0
  2  9  1  0  0  0  0
  4  6  1  0  0  0  0
  6  7  2  0  0  0  0
  7  8  1  0  0  0  0
  8  9  2  0  0  0  0
 10 11  2  0  0  0  0
 10 15  1  0  0  0  0
 11 12  1  0  0  0  0
 12 13  2  0  0  0  0
 13  3  1  0  0  0  0
 13 14  1  0  0  0  0
 14 15  2  0  0  0  0
 16 17  2  0  0  0  0
 16 21  1  0  0  0  0
 17 18  1  0  0  0  0
 18 19  2  0  0  0  0
 19  5  1  0  0  0  0
 19 20  1  0  0  0  0
 20 21  2  0  0  0  0
 22  3  1  0  0  0  0
 23  3  1  0  0  0  0
 24  5  1  0  0  0  0
 25  5  1  0  0  0  0
M  END
>  <CHROM.1>
12.33047439,-166.65126544,-157.35387748,17.97134068,159.76544264,0.91067655
-0.00717111,-0.28849935,0.03182798,1.21624305,-0.59231428

>  <Name>
1q8n_lig

>  <RI>
0

>  <Rbt.Current_Directory>
/home/itssahil/PROJECTS/Mol_Feturizer/New_Systems/rnas/1q8n

>  <Rbt.Executable>
rbdock ($Id: //depot/dev/client3/rdock/2013.1/src/exe/rbdock.cxx#4 $)

>  <Rbt.Library>
libRbt.so (2013.1, Build901 2013/11/27)

>  <Rbt.Parameter_File>
/export/apps/rDock/src/rDock_2013.1_src/data/scripts/dock_solv.prm

>  <Rbt.Receptor>
prm/blind_docking_100.prm

>  <SCORE>
-48.8059

>  <SCORE.INTER>
-50.2801

>  <SCORE.INTER.CONST>
1

>  <SCORE.INTER.POLAR>
0

>  <SCORE.INTER.ROT>
5

>  <SCORE.INTER.SOLV>
9.55827

>  <SCORE.INTER.VDW>
-43.6395

>  <SCORE.INTER.norm>
-2.0112

>  <SCORE.INTRA>
1.47422

>  <SCORE.INTRA.DIHEDRAL>
2.75089

>  <SCORE.INTRA.DIHEDRAL.0>
2.1627

>  <SCORE.INTRA.POLAR>
0

>  <SCORE.INTRA.POLAR.0>
0

>  <SCORE.INTRA.REPUL>
0

>  <SCORE.INTRA.REPUL.0>
0

>  <SCORE.INTRA.SOLV>
0.0616896

>  <SCORE.INTRA.SOLV.lig_0>
-5.95779

>  <SCORE.INTRA.VDW>
0.0679321

>  <SCORE.INTRA.VDW.0>
3.81702

>  <SCORE.INTRA.norm>
0.0589689

>  <SCORE.RESTR>
0

>  <SCORE.RESTR.CAVITY>
0

>  <SCORE.RESTR.norm>
0

>  <SCORE.SYSTEM>
0

>  <SCORE.SYSTEM.CONST>
0

>  <SCORE.SYSTEM.DIHEDRAL>
0

>  <SCORE.SYSTEM.SOLV>
0

>  <SCORE.SYSTEM.norm>
0

>  <SCORE.heavy>
25

>  <SCORE.norm>
-1.95224

>  <RMSD>
1.835

$$$$
1q8n_lig
 OpenBabel11021811403D
libRbt.so/2013.1/901 2013/11/27
 25 27  0  0  0  0  0  0  0  0999 V2000
    0.8764    0.7331   -0.7914 C   0  0  0  0  0  0  0  0  0  0  0  0
    0.9042    2.0601   -1.7421 C   0  0  0  0  0  0  0  0  0  0  0  0
    2.7123   -4.4269   -3.1207 N   0  0  0  0  0  0  0  0  0  0  0  0
    1.0681    2.0135   -3.0859 C   0  0  0  0  0  0  0  0  0  0  0  0
   -0.8499    0.7881    4.9470 N   0  0  0  0  0  0  0  0  0  0  0  0
    1.0932    3.2427   -3.9120 C   0  0  0  0  0  0  0  0  0  0  0  0
    0.9482    4.4513   -3.3219 C   0  0  0  0  0  0  0  0  0  0  0  0
    0.7655    4.5232   -1.8910 C   0  0  0  0  0  0  0  0  0  0  0  0
    0.7465    3.4079   -1.1569 C   0  0  0  0  0  0  0  0  0  0  0  0
    1.3788   -0.6834   -1.4249 C   0  0  0  0  0  0  0  0  0  0  0  0
    1.1649   -1.8512   -0.7840 C   0  0  0  0  0  0  0  0  0  0  0  0
    1.6166   -3.1537   -1.3474 C   0  0  0  0  0  0  0  0  0  0  0  0
    2.2634   -3.1947   -2.5429 C   0  0  0  0  0  0  0  0  0  0  0  0
    2.5024   -1.9260   -3.2565 C   0  0  0  0  0  0  0  0  0  0  0  0
    2.0908   -0.7622   -2.7341 C   0  0  0  0  0  0  0  0  0  0  0  0
    0.3540    0.7971    0.7808 C   0  0  0  0  0  0  0  0  0  0  0  0
    0.8083   -0.2476    1.7624 C   0  0  0  0  0  0  0  0  0  0  0  0
    0.4322   -0.2477    3.0442 C   0  0  0  0  0  0  0  0  0  0  0  0
   -0.4616    0.7919    3.5677 C   0  0  0  0  0  0  0  0  0  0  0  0
   -0.9036    1.7501    2.7269 C   0  0  0  0  0  0  0  0  0  0  0  0
   -0.4863    1.7613    1.2844 C   0  0  0  0  0  0  0  0  0  0  0  0
    3.7267   -4.4726   -4.1293 C   0  0  0  0  0  0  0  0  0  0  0  0
    2.1466   -5.6691   -2.6941 C   0  0  0  0  0  0  0  0  0  0  0  0
   -0.7649   -0.4170    5.7210 C   0  0  0  0  0  0  0  0  0  0  0  0
   -1.3284    1.9883    5.5951 C   0  0  0  0  0  0  0  0  0  0  0  0
  1  2  1  0  0  0  0
  1 10  1  0  0  0  0
  1 16  1  0  0  0  0
  2  4  2  0  0  0  0
  2  9  1  0  0  0  0
  4  6  1  0  0  0  0
  6  7  2  0  0  0  0
  7  8  1  0  0  0  0
  8  9  2  0  0  0  0
 10 11  2  0  0  0  0
 10 15  1  0  0  0  0
 11 12  1  0  0  0  0
 12 13  2  0  0  0  0
 13  3  1  0  0  0  0
 13 14  1  0  0  0  0
 14 15  2  0  0  0  0
 16 17  2  0  0  0  0
 16 21  1  0  0  0  0
 17 18  1  0  0  0  0
 18 19  2  0  0  0  0
 19  5  1  0  0  0  0
 19 20  1  0  0  0  0
 20 21  2  0  0  0  0
 22  3  1  0  0  0  0
 23  3  1  0  0  0  0
 24  5  1  0  0  0  0
 25  5  1  0  0  0  0
M  END
>  <CHROM.1>
13.35580190,-168.21212917,-156.77741933,-160.20973613,-20.97956233,0.91346840
-0.01295809,-0.29805781,0.02848069,1.21085028,-0.58594153

>  <Name>
1q8n_lig

>  <RI>
0

>  <Rbt.Current_Directory>
/home/itssahil/PROJECTS/Mol_Feturizer/New_Systems/rnas/1q8n

>  <Rbt.Executable>
rbdock ($Id: //depot/dev/client3/rdock/2013.1/src/exe/rbdock.cxx#4 $)

>  <Rbt.Library>
libRbt.so (2013.1, Build901 2013/11/27)

>  <Rbt.Parameter_File>
/export/apps/rDock/src/rDock_2013.1_src/data/scripts/dock_solv.prm

>  <Rbt.Receptor>
prm/blind_docking_80.prm

>  <SCORE>
-48.9635

>  <SCORE.INTER>
-50.4096

>  <SCORE.INTER.CONST>
1

>  <SCORE.INTER.POLAR>
0

>  <SCORE.INTER.ROT>
5

>  <SCORE.INTER.SOLV>
9.56979

>  <SCORE.INTER.VDW>
-43.7297

>  <SCORE.INTER.norm>
-2.01638

>  <SCORE.INTRA>
1.44612

>  <SCORE.INTRA.DIHEDRAL>
3.10938

>  <SCORE.INTRA.DIHEDRAL.0>
2.1627

>  <SCORE.INTRA.POLAR>
0

>  <SCORE.INTRA.POLAR.0>
0

>  <SCORE.INTRA.REPUL>
0

>  <SCORE.INTRA.REPUL.0>
0

>  <SCORE.INTRA.SOLV>
0.0614441

>  <SCORE.INTRA.SOLV.lig_0>
-5.95779

>  <SCORE.INTRA.VDW>
-0.139289

>  <SCORE.INTRA.VDW.0>
3.81702

>  <SCORE.INTRA.norm>
0.057845

>  <SCORE.RESTR>
0

>  <SCORE.RESTR.CAVITY>
0

>  <SCORE.RESTR.norm>
0

>  <SCORE.SYSTEM>
0

>  <SCORE.SYSTEM.CONST>
0

>  <SCORE.SYSTEM.DIHEDRAL>
0

>  <SCORE.SYSTEM.SOLV>
0

>  <SCORE.SYSTEM.norm>
0

>  <SCORE.heavy>
25

>  <SCORE.norm>
-1.95854

>  <RMSD>
1.836

$$$$
1q8n_lig
 OpenBabel11021811413D
libRbt.so/2013.1/901 2013/11/27
 25 27  0  0  0  0  0  0  0  0999 V2000
    0.8726    0.7290   -0.8054 C   0  0  0  0  0  0  0  0  0  0  0  0
    0.8943    2.0551   -1.7575 C   0  0  0  0  0  0  0  0  0  0  0  0
    2.6825   -4.4518   -3.1088 N   0  0  0  0  0  0  0  0  0  0  0  0
    1.0621    2.0082   -3.1008 C   0  0  0  0  0  0  0  0  0  0  0  0
   -0.8168    0.7844    4.9440 N   0  0  0  0  0  0  0  0  0  0  0  0
    1.0814    3.2367   -3.9281 C   0  0  0  0  0  0  0  0  0  0  0  0
    0.9271    4.4449   -3.3396 C   0  0  0  0  0  0  0  0  0  0  0  0
    0.7401    4.5171   -1.9093 C   0  0  0  0  0  0  0  0  0  0  0  0
    0.7263    3.4025   -1.1741 C   0  0  0  0  0  0  0  0  0  0  0  0
    1.3692   -0.6884   -1.4415 C   0  0  0  0  0  0  0  0  0  0  0  0
    1.9873   -0.7389   -2.6397 C   0  0  0  0  0  0  0  0  0  0  0  0
    2.4474   -2.0239   -3.2357 C   0  0  0  0  0  0  0  0  0  0  0  0
    2.2533   -3.1945   -2.5715 C   0  0  0  0  0  0  0  0  0  0  0  0
    1.5807   -3.1548   -1.2592 C   0  0  0  0  0  0  0  0  0  0  0  0
    1.1713   -1.9897   -0.7382 C   0  0  0  0  0  0  0  0  0  0  0  0
    0.3619    0.7947    0.7705 C   0  0  0  0  0  0  0  0  0  0  0  0
    0.7867   -0.2744    1.7391 C   0  0  0  0  0  0  0  0  0  0  0  0
    0.4185   -0.2747    3.0231 C   0  0  0  0  0  0  0  0  0  0  0  0
   -0.4368    0.7890    3.5623 C   0  0  0  0  0  0  0  0  0  0  0  0
   -0.8514    1.7698    2.7337 C   0  0  0  0  0  0  0  0  0  0  0  0
   -0.4426    1.7814    1.2888 C   0  0  0  0  0  0  0  0  0  0  0  0
    2.1436   -5.6989   -2.6584 C   0  0  0  0  0  0  0  0  0  0  0  0
    3.6812   -4.4932   -4.1316 C   0  0  0  0  0  0  0  0  0  0  0  0
   -0.7222   -0.4199    5.7181 C   0  0  0  0  0  0  0  0  0  0  0  0
   -1.2964    1.9830    5.5942 C   0  0  0  0  0  0  0  0  0  0  0  0
  1  2  1  0  0  0  0
  1 10  1  0  0  0  0
  1 16  1  0  0  0  0
  2  4  2  0  0  0  0
  2  9  1  0  0  0  0
  4  6  1  0  0  0  0
  6  7  2  0  0  0  0
  7  8  1  0  0  0  0
  8  9  2  0  0  0  0
 10 11  2  0  0  0  0
 10 15  1  0  0  0  0
 11 12  1  0  0  0  0
 12 13  2  0  0  0  0
 13  3  1  0  0  0  0
 13 14  1  0  0  0  0
 14 15  2  0  0  0  0
 16 17  2  0  0  0  0
 16 21  1  0  0  0  0
 17 18  1  0  0  0  0
 18 19  2  0  0  0  0
 19  5  1  0  0  0  0
 19 20  1  0  0  0  0
 20 21  2  0  0  0  0
 22  3  1  0  0  0  0
 23  3  1  0  0  0  0
 24  5  1  0  0  0  0
 25  5  1  0  0  0  0
M  END
>  <CHROM.1>
12.64411100,10.79150594,-158.75404121,-160.18763957,-18.74048454,0.90640771
-0.02769523,-0.29446001,0.03007785,1.21693490,-0.59552905

>  <Name>
1q8n_lig

>  <RI>
0

>  <Rbt.Current_Directory>
/home/itssahil/PROJECTS/Mol_Feturizer/New_Systems/rnas/1q8n

>  <Rbt.Executable>
rbdock ($Id: //depot/dev/client3/rdock/2013.1/src/exe/rbdock.cxx#4 $)

>  <Rbt.Library>
libRbt.so (2013.1, Build901 2013/11/27)

>  <Rbt.Parameter_File>
/export/apps/rDock/src/rDock_2013.1_src/data/scripts/dock_solv.prm

>  <Rbt.Receptor>
prm/pocket_docking_8.prm

>  <SCORE>
-48.7482

>  <SCORE.INTER>
-50.3433

>  <SCORE.INTER.CONST>
1

>  <SCORE.INTER.POLAR>
0

>  <SCORE.INTER.ROT>
5

>  <SCORE.INTER.SOLV>
9.46919

>  <SCORE.INTER.VDW>
-43.6519

>  <SCORE.INTER.norm>
-2.01373

>  <SCORE.INTRA>
1.59509

>  <SCORE.INTRA.DIHEDRAL>
2.79174

>  <SCORE.INTRA.DIHEDRAL.0>
2.1627

>  <SCORE.INTRA.POLAR>
0

>  <SCORE.INTRA.POLAR.0>
0

>  <SCORE.INTRA.REPUL>
0

>  <SCORE.INTRA.REPUL.0>
0

>  <SCORE.INTRA.SOLV>
0.064034

>  <SCORE.INTRA.SOLV.lig_0>
-5.95779

>  <SCORE.INTRA.VDW>
0.167206

>  <SCORE.INTRA.VDW.0>
3.81702

>  <SCORE.INTRA.norm>
0.0638036

>  <SCORE.RESTR>
0

>  <SCORE.RESTR.CAVITY>
0

>  <SCORE.RESTR.norm>
0

>  <SCORE.SYSTEM>
0

>  <SCORE.SYSTEM.CONST>
0

>  <SCORE.SYSTEM.DIHEDRAL>
0

>  <SCORE.SYSTEM.SOLV>
0

>  <SCORE.SYSTEM.norm>
0

>  <SCORE.heavy>
25

>  <SCORE.norm>
-1.94993

>  <RMSD>
1.836

$$$$
1q8n_lig
 OpenBabel11021811403D
libRbt.so/2013.1/901 2013/11/27
 25 27  0  0  0  0  0  0  0  0999 V2000
    0.8725    0.7328   -0.8067 C   0  0  0  0  0  0  0  0  0  0  0  0
    0.8890    2.0605   -1.7566 C   0  0  0  0  0  0  0  0  0  0  0  0
    2.6922   -4.4394   -3.1217 N   0  0  0  0  0  0  0  0  0  0  0  0
    1.0520    2.0160   -3.1006 C   0  0  0  0  0  0  0  0  0  0  0  0
   -0.8036    0.7775    4.9467 N   0  0  0  0  0  0  0  0  0  0  0  0
    1.0666    3.2459   -3.9259 C   0  0  0  0  0  0  0  0  0  0  0  0
    0.9127    4.4530   -3.3349 C   0  0  0  0  0  0  0  0  0  0  0  0
    0.7307    4.5225   -1.9038 C   0  0  0  0  0  0  0  0  0  0  0  0
    0.7212    3.4067   -1.1704 C   0  0  0  0  0  0  0  0  0  0  0  0
    1.3719   -0.6822   -1.4459 C   0  0  0  0  0  0  0  0  0  0  0  0
    2.0127   -0.7262   -2.6324 C   0  0  0  0  0  0  0  0  0  0  0  0
    2.4757   -2.0089   -3.2311 C   0  0  0  0  0  0  0  0  0  0  0  0
    2.2610   -3.1841   -2.5814 C   0  0  0  0  0  0  0  0  0  0  0  0
    1.5635   -3.1516   -1.2820 C   0  0  0  0  0  0  0  0  0  0  0  0
    1.1519   -1.9884   -0.7584 C   0  0  0  0  0  0  0  0  0  0  0  0
    0.3644    0.7945    0.7702 C   0  0  0  0  0  0  0  0  0  0  0  0
    0.8146   -0.2608    1.7424 C   0  0  0  0  0  0  0  0  0  0  0  0
    0.4496   -0.2633    3.0274 C   0  0  0  0  0  0  0  0  0  0  0  0
   -0.4272    0.7841    3.5641 C   0  0  0  0  0  0  0  0  0  0  0  0
   -0.8649    1.7519    2.7321 C   0  0  0  0  0  0  0  0  0  0  0  0
   -0.4600    1.7659    1.2862 C   0  0  0  0  0  0  0  0  0  0  0  0
    3.6606   -4.5267   -4.1720 C   0  0  0  0  0  0  0  0  0  0  0  0
    2.1549   -5.6634   -2.6135 C   0  0  0  0  0  0  0  0  0  0  0  0
   -1.2870    1.9746    5.5724 C   0  0  0  0  0  0  0  0  0  0  0  0
   -0.7140   -0.4256    5.7429 C   0  0  0  0  0  0  0  0  0  0  0  0
  1  2  1  0  0  0  0
  1 10  1  0  0  0  0
  1 16  1  0  0  0  0
  2  4  2  0  0  0  0
  2  9  1  0  0  0  0
  4  6  1  0  0  0  0
  6  7  2  0  0  0  0
  7  8  1  0  0  0  0
  8  9  2  0  0  0  0
 10 11  2  0  0  0  0
 10 15  1  0  0  0  0
 11 12  1  0  0  0  0
 12 13  2  0  0  0  0
 13  3  1  0  0  0  0
 13 14  1  0  0  0  0
 14 15  2  0  0  0  0
 16 17  2  0  0  0  0
 16 21  1  0  0  0  0
 17 18  1  0  0  0  0
 18 19  2  0  0  0  0
 19  5  1  0  0  0  0
 19 20  1  0  0  0  0
 20 21  2  0  0  0  0
 22  3  1  0  0  0  0
 23  3  1  0  0  0  0
 24  5  1  0  0  0  0
 25  5  1  0  0  0  0
M  END
>  <CHROM.1>
12.77604262,12.17768048,-157.61502293,16.70657405,160.26263358,0.90804633
-0.02493677,-0.29548964,0.03827056,1.21713949,-0.60224631

>  <Name>
1q8n_lig

>  <RI>
0

>  <Rbt.Current_Directory>
/home/itssahil/PROJECTS/Mol_Feturizer/New_Systems/rnas/1q8n

>  <Rbt.Executable>
rbdock ($Id: //depot/dev/client3/rdock/2013.1/src/exe/rbdock.cxx#4 $)

>  <Rbt.Library>
libRbt.so (2013.1, Build901 2013/11/27)

>  <Rbt.Parameter_File>
/export/apps/rDock/src/rDock_2013.1_src/data/scripts/dock_solv.prm

>  <Rbt.Receptor>
prm/blind_docking_40.prm

>  <SCORE>
-48.7537

>  <SCORE.INTER>
-50.2657

>  <SCORE.INTER.CONST>
1

>  <SCORE.INTER.POLAR>
0

>  <SCORE.INTER.ROT>
5

>  <SCORE.INTER.SOLV>
9.48072

>  <SCORE.INTER.VDW>
-43.6041

>  <SCORE.INTER.norm>
-2.01063

>  <SCORE.INTRA>
1.51206

>  <SCORE.INTRA.DIHEDRAL>
2.51756

>  <SCORE.INTRA.DIHEDRAL.0>
2.1627

>  <SCORE.INTRA.POLAR>
0

>  <SCORE.INTRA.POLAR.0>
0

>  <SCORE.INTRA.REPUL>
0

>  <SCORE.INTRA.REPUL.0>
0

>  <SCORE.INTRA.SOLV>
0.0623976

>  <SCORE.INTRA.SOLV.lig_0>
-5.95779

>  <SCORE.INTRA.VDW>
0.222083

>  <SCORE.INTRA.VDW.0>
3.81702

>  <SCORE.INTRA.norm>
0.0604825

>  <SCORE.RESTR>
0

>  <SCORE.RESTR.CAVITY>
0

>  <SCORE.RESTR.norm>
0

>  <SCORE.SYSTEM>
0

>  <SCORE.SYSTEM.CONST>
0

>  <SCORE.SYSTEM.DIHEDRAL>
0

>  <SCORE.SYSTEM.SOLV>
0

>  <SCORE.SYSTEM.norm>
0

>  <SCORE.heavy>
25

>  <SCORE.norm>
-1.95015

>  <RMSD>
1.837

$$$$
1q8n_lig
 OpenBabel11021811403D
libRbt.so/2013.1/901 2013/11/27
 25 27  0  0  0  0  0  0  0  0999 V2000
    0.8760    0.7176   -0.7989 C   0  0  0  0  0  0  0  0  0  0  0  0
    0.9095    2.0454   -1.7483 C   0  0  0  0  0  0  0  0  0  0  0  0
    2.6701   -4.4683   -3.1030 N   0  0  0  0  0  0  0  0  0  0  0  0
    1.0905    2.0006   -3.0900 C   0  0  0  0  0  0  0  0  0  0  0  0
   -0.8353    0.7778    4.9440 N   0  0  0  0  0  0  0  0  0  0  0  0
    1.1203    3.2305   -3.9148 C   0  0  0  0  0  0  0  0  0  0  0  0
    0.9622    4.4380   -3.3257 C   0  0  0  0  0  0  0  0  0  0  0  0
    0.7611    4.5080   -1.8972 C   0  0  0  0  0  0  0  0  0  0  0  0
    0.7381    3.3921   -1.1642 C   0  0  0  0  0  0  0  0  0  0  0  0
    1.3684   -0.7012   -1.4352 C   0  0  0  0  0  0  0  0  0  0  0  0
    2.0049   -0.7513   -2.6237 C   0  0  0  0  0  0  0  0  0  0  0  0
    2.4614   -2.0374   -3.2197 C   0  0  0  0  0  0  0  0  0  0  0  0
    2.2451   -3.2098   -2.5654 C   0  0  0  0  0  0  0  0  0  0  0  0
    1.5522   -3.1706   -1.2637 C   0  0  0  0  0  0  0  0  0  0  0  0
    1.1463   -2.0043   -0.7425 C   0  0  0  0  0  0  0  0  0  0  0  0
    0.3577    0.7831    0.7745 C   0  0  0  0  0  0  0  0  0  0  0  0
    0.8136   -0.2614    1.7557 C   0  0  0  0  0  0  0  0  0  0  0  0
    0.4409   -0.2604    3.0384 C   0  0  0  0  0  0  0  0  0  0  0  0
   -0.4506    0.7804    3.5636 C   0  0  0  0  0  0  0  0  0  0  0  0
   -0.8939    1.7384    2.7233 C   0  0  0  0  0  0  0  0  0  0  0  0
   -0.4804    1.7483    1.2798 C   0  0  0  0  0  0  0  0  0  0  0  0
    2.1327   -5.7142   -2.6475 C   0  0  0  0  0  0  0  0  0  0  0  0
    3.6629   -4.5123   -4.1315 C   0  0  0  0  0  0  0  0  0  0  0  0
   -0.7829   -0.4348    5.7091 C   0  0  0  0  0  0  0  0  0  0  0  0
   -1.2776    1.9865    5.6018 C   0  0  0  0  0  0  0  0  0  0  0  0
  1  2  1  0  0  0  0
  1 10  1  0  0  0  0
  1 16  1  0  0  0  0
  2  4  2  0  0  0  0
  2  9  1  0  0  0  0
  4  6  1  0  0  0  0
  6  7  2  0  0  0  0
  7  8  1  0  0  0  0
  8  9  2  0  0  0  0
 10 11  2  0  0  0  0
 10 15  1  0  0  0  0
 11 12  1  0  0  0  0
 12 13  2  0  0  0  0
 13  3  1  0  0  0  0
 13 14  1  0  0  0  0
 14 15  2  0  0  0  0
 16 17  2  0  0  0  0
 16 21  1  0  0  0  0
 17 18  1  0  0  0  0
 18 19  2  0  0  0  0
 19  5  1  0  0  0  0
 19 20  1  0  0  0  0
 20 21  2  0  0  0  0
 22  3  1  0  0  0  0
 23  3  1  0  0  0  0
 24  5  1  0  0  0  0
 25  5  1  0  0  0  0
M  END
>  <CHROM.1>
12.30152625,11.49964556,-156.46729789,-161.59318102,-22.63107008,0.90480689
-0.03856845,-0.28877709,0.01127675,1.21617037,-0.57644376

>  <Name>
1q8n_lig

>  <RI>
0

>  <Rbt.Current_Directory>
/home/itssahil/PROJECTS/Mol_Feturizer/New_Systems/rnas/1q8n

>  <Rbt.Executable>
rbdock ($Id: //depot/dev/client3/rdock/2013.1/src/exe/rbdock.cxx#4 $)

>  <Rbt.Library>
libRbt.so (2013.1, Build901 2013/11/27)

>  <Rbt.Parameter_File>
/export/apps/rDock/src/rDock_2013.1_src/data/scripts/dock_solv.prm

>  <Rbt.Receptor>
prm/blind_docking_60.prm

>  <SCORE>
-48.6759

>  <SCORE.INTER>
-50.2522

>  <SCORE.INTER.CONST>
1

>  <SCORE.INTER.POLAR>
0

>  <SCORE.INTER.ROT>
5

>  <SCORE.INTER.SOLV>
9.50492

>  <SCORE.INTER.VDW>
-43.6031

>  <SCORE.INTER.norm>
-2.01009

>  <SCORE.INTRA>
1.57632

>  <SCORE.INTRA.DIHEDRAL>
3.17171

>  <SCORE.INTRA.DIHEDRAL.0>
2.1627

>  <SCORE.INTRA.POLAR>
0

>  <SCORE.INTRA.POLAR.0>
0

>  <SCORE.INTRA.REPUL>
0

>  <SCORE.INTRA.REPUL.0>
0

>  <SCORE.INTRA.SOLV>
0.0619377

>  <SCORE.INTRA.SOLV.lig_0>
-5.95779

>  <SCORE.INTRA.VDW>
-0.0405107

>  <SCORE.INTRA.VDW.0>
3.81702

>  <SCORE.INTRA.norm>
0.0630526

>  <SCORE.RESTR>
0

>  <SCORE.RESTR.CAVITY>
0

>  <SCORE.RESTR.norm>
0

>  <SCORE.SYSTEM>
0

>  <SCORE.SYSTEM.CONST>
0

>  <SCORE.SYSTEM.DIHEDRAL>
0

>  <SCORE.SYSTEM.SOLV>
0

>  <SCORE.SYSTEM.norm>
0

>  <SCORE.heavy>
25

>  <SCORE.norm>
-1.94704

>  <RMSD>
1.841

$$$$
1q8n_lig
 OpenBabel11021811403D
libRbt.so/2013.1/901 2013/11/27
 25 27  0  0  0  0  0  0  0  0999 V2000
    0.8777    0.7353   -0.7807 C   0  0  0  0  0  0  0  0  0  0  0  0
    0.9149    2.0636   -1.7293 C   0  0  0  0  0  0  0  0  0  0  0  0
    2.6746   -4.4343   -3.1192 N   0  0  0  0  0  0  0  0  0  0  0  0
    1.1117    2.0202   -3.0688 C   0  0  0  0  0  0  0  0  0  0  0  0
   -0.8458    0.7935    4.9586 N   0  0  0  0  0  0  0  0  0  0  0  0
    1.1441    3.2505   -3.8928 C   0  0  0  0  0  0  0  0  0  0  0  0
    0.9726    4.4569   -3.3053 C   0  0  0  0  0  0  0  0  0  0  0  0
    0.7546    4.5253   -1.8792 C   0  0  0  0  0  0  0  0  0  0  0  0
    0.7293    3.4090   -1.1468 C   0  0  0  0  0  0  0  0  0  0  0  0
    1.3695   -0.6838   -1.4167 C   0  0  0  0  0  0  0  0  0  0  0  0
    1.1558   -1.8502   -0.7730 C   0  0  0  0  0  0  0  0  0  0  0  0
    1.5978   -3.1550   -1.3386 C   0  0  0  0  0  0  0  0  0  0  0  0
    2.2351   -3.1998   -2.5391 C   0  0  0  0  0  0  0  0  0  0  0  0
    2.4738   -1.9327   -3.2557 C   0  0  0  0  0  0  0  0  0  0  0  0
    2.0710   -0.7668   -2.7313 C   0  0  0  0  0  0  0  0  0  0  0  0
    0.3564    0.8006    0.7918 C   0  0  0  0  0  0  0  0  0  0  0  0
    0.8035   -0.2490    1.7716 C   0  0  0  0  0  0  0  0  0  0  0  0
    0.4280   -0.2484    3.0535 C   0  0  0  0  0  0  0  0  0  0  0  0
   -0.4581    0.7968    3.5791 C   0  0  0  0  0  0  0  0  0  0  0  0
   -0.8935    1.7595    2.7399 C   0  0  0  0  0  0  0  0  0  0  0  0
   -0.4767    1.7700    1.2973 C   0  0  0  0  0  0  0  0  0  0  0  0
    3.6716   -4.4841   -4.1448 C   0  0  0  0  0  0  0  0  0  0  0  0
    2.1168   -5.6749   -2.6776 C   0  0  0  0  0  0  0  0  0  0  0  0
   -0.7394   -0.4056    5.7390 C   0  0  0  0  0  0  0  0  0  0  0  0
   -1.3453    1.9886    5.6003 C   0  0  0  0  0  0  0  0  0  0  0  0
  1  2  1  0  0  0  0
  1 10  1  0  0  0  0
  1 16  1  0  0  0  0
  2  4  2  0  0  0  0
  2  9  1  0  0  0  0
  4  6  1  0  0  0  0
  6  7  2  0  0  0  0
  7  8  1  0  0  0  0
  8  9  2  0  0  0  0
 10 11  2  0  0  0  0
 10 15  1  0  0  0  0
 11 12  1  0  0  0  0
 12 13  2  0  0  0  0
 13  3  1  0  0  0  0
 13 14  1  0  0  0  0
 14 15  2  0  0  0  0
 16 17  2  0  0  0  0
 16 21  1  0  0  0  0
 17 18  1  0  0  0  0
 18 19  2  0  0  0  0
 19  5  1  0  0  0  0
 19 20  1  0  0  0  0
 20 21  2  0  0  0  0
 22  3  1  0  0  0  0
 23  3  1  0  0  0  0
 24  5  1  0  0  0  0
 25  5  1  0  0  0  0
M  END
>  <CHROM.1>
11.62565491,-168.69663315,-156.76975961,-160.83235669,-19.49929290,0.90884691
-0.01189215,-0.28864731,0.01516458,1.21466388,-0.57218981

>  <Name>
1q8n_lig

>  <RI>
0

>  <Rbt.Current_Directory>
/home/itssahil/PROJECTS/Mol_Feturizer/New_Systems/rnas/1q8n

>  <Rbt.Executable>
rbdock ($Id: //depot/dev/client3/rdock/2013.1/src/exe/rbdock.cxx#4 $)

>  <Rbt.Library>
libRbt.so (2013.1, Build901 2013/11/27)

>  <Rbt.Parameter_File>
/export/apps/rDock/src/rDock_2013.1_src/data/scripts/dock_solv.prm

>  <Rbt.Receptor>
prm/blind_docking_40.prm

>  <SCORE>
-48.887

>  <SCORE.INTER>
-50.3423

>  <SCORE.INTER.CONST>
1

>  <SCORE.INTER.POLAR>
0

>  <SCORE.INTER.ROT>
5

>  <SCORE.INTER.SOLV>
9.56702

>  <SCORE.INTER.VDW>
-43.6838

>  <SCORE.INTER.norm>
-2.01369

>  <SCORE.INTRA>
1.45524

>  <SCORE.INTRA.DIHEDRAL>
2.80717

>  <SCORE.INTRA.DIHEDRAL.0>
2.1627

>  <SCORE.INTRA.POLAR>
0

>  <SCORE.INTRA.POLAR.0>
0

>  <SCORE.INTRA.REPUL>
0

>  <SCORE.INTRA.REPUL.0>
0

>  <SCORE.INTRA.SOLV>
0.0626633

>  <SCORE.INTRA.SOLV.lig_0>
-5.95779

>  <SCORE.INTRA.VDW>
0.0203222

>  <SCORE.INTRA.VDW.0>
3.81702

>  <SCORE.INTRA.norm>
0.0582096

>  <SCORE.RESTR>
0

>  <SCORE.RESTR.CAVITY>
0

>  <SCORE.RESTR.norm>
0

>  <SCORE.SYSTEM>
0

>  <SCORE.SYSTEM.CONST>
0

>  <SCORE.SYSTEM.DIHEDRAL>
0

>  <SCORE.SYSTEM.SOLV>
0

>  <SCORE.SYSTEM.norm>
0

>  <SCORE.heavy>
25

>  <SCORE.norm>
-1.95548

>  <RMSD>
1.844

$$$$
1q8n_lig
 OpenBabel11021811413D
libRbt.so/2013.1/901 2013/11/27
 25 27  0  0  0  0  0  0  0  0999 V2000
    0.8549    0.6535   -0.6402 C   0  0  0  0  0  0  0  0  0  0  0  0
    0.8634    2.0096   -1.5492 C   0  0  0  0  0  0  0  0  0  0  0  0
   -0.8957    1.0485    5.0344 N   0  0  0  0  0  0  0  0  0  0  0  0
    0.7203    3.2548   -1.0355 C   0  0  0  0  0  0  0  0  0  0  0  0
    2.6392   -4.5303   -3.0603 N   0  0  0  0  0  0  0  0  0  0  0  0
    0.7280    4.4599   -1.8968 C   0  0  0  0  0  0  0  0  0  0  0  0
    0.8828    4.3283   -3.2342 C   0  0  0  0  0  0  0  0  0  0  0  0
    1.0437    3.0101   -3.8020 C   0  0  0  0  0  0  0  0  0  0  0  0
    1.0332    1.9312   -3.0152 C   0  0  0  0  0  0  0  0  0  0  0  0
    0.3736    0.7669    0.9141 C   0  0  0  0  0  0  0  0  0  0  0  0
   -0.4277    1.7709    1.3266 C   0  0  0  0  0  0  0  0  0  0  0  0
   -0.8770    1.8902    2.7415 C   0  0  0  0  0  0  0  0  0  0  0  0
   -0.4843    0.9713    3.6639 C   0  0  0  0  0  0  0  0  0  0  0  0
    0.3902   -0.1335    3.2271 C   0  0  0  0  0  0  0  0  0  0  0  0
    0.7867   -0.2248    1.9500 C   0  0  0  0  0  0  0  0  0  0  0  0
    1.3202   -0.8132   -1.2571 C   0  0  0  0  0  0  0  0  0  0  0  0
    1.8848   -0.8936   -2.6487 C   0  0  0  0  0  0  0  0  0  0  0  0
    2.2870   -2.0416   -3.2008 C   0  0  0  0  0  0  0  0  0  0  0  0
    2.1948   -3.3063   -2.4621 C   0  0  0  0  0  0  0  0  0  0  0  0
    1.6895   -3.2908   -1.2112 C   0  0  0  0  0  0  0  0  0  0  0  0
    1.2357   -2.0063   -0.5797 C   0  0  0  0  0  0  0  0  0  0  0  0
   -1.4178    2.2511    5.6086 C   0  0  0  0  0  0  0  0  0  0  0  0
   -0.7939   -0.0994    5.8814 C   0  0  0  0  0  0  0  0  0  0  0  0
    2.0891   -5.7859   -2.6371 C   0  0  0  0  0  0  0  0  0  0  0  0
    3.6412   -4.5356   -4.1022 C   0  0  0  0  0  0  0  0  0  0  0  0
  1  2  1  0  0  0  0
  1 10  1  0  0  0  0
  1 16  1  0  0  0  0
  2  4  2  0  0  0  0
  2  9  1  0  0  0  0
  4  6  1  0  0  0  0
  6  7  2  0  0  0  0
  7  8  1  0  0  0  0
  8  9  2  0  0  0  0
 10 11  2  0  0  0  0
 10 15  1  0  0  0  0
 11 12  1  0  0  0  0
 12 13  2  0  0  0  0
 13  3  1  0  0  0  0
 13 14  1  0  0  0  0
 14 15  2  0  0  0  0
 16 17  2  0  0  0  0
 16 21  1  0  0  0  0
 17 18  1  0  0  0  0
 18 19  2  0  0  0  0
 19  5  1  0  0  0  0
 19 20  1  0  0  0  0
 20 21  2  0  0  0  0
 22  3  1  0  0  0  0
 23  3  1  0  0  0  0
 24  5  1  0  0  0  0
 25  5  1  0  0  0  0
M  END
>  <CHROM.1>
11.93716985,23.44010316,5.65553747,-17.70587703,-154.37339120,0.87096757
-0.03212532,-0.19877486,3.13228446,-1.22372321,2.53387473

>  <Name>
1q8n_lig

>  <RI>
0

>  <Rbt.Current_Directory>
/home/itssahil/PROJECTS/Mol_Feturizer/New_Systems/rnas/1q8n

>  <Rbt.Executable>
rbdock ($Id: //depot/dev/client3/rdock/2013.1/src/exe/rbdock.cxx#4 $)

>  <Rbt.Library>
libRbt.so (2013.1, Build901 2013/11/27)

>  <Rbt.Parameter_File>
/export/apps/rDock/src/rDock_2013.1_src/data/scripts/dock_solv.prm

>  <Rbt.Receptor>
prm/pocket_docking_7.prm

>  <SCORE>
-48.6838

>  <SCORE.INTER>
-50.3724

>  <SCORE.INTER.CONST>
1

>  <SCORE.INTER.POLAR>
0

>  <SCORE.INTER.ROT>
5

>  <SCORE.INTER.SOLV>
9.37819

>  <SCORE.INTER.VDW>
-43.641

>  <SCORE.INTER.norm>
-2.0149

>  <SCORE.INTRA>
1.68856

>  <SCORE.INTRA.DIHEDRAL>
3.57226

>  <SCORE.INTRA.DIHEDRAL.0>
2.1627

>  <SCORE.INTRA.POLAR>
0

>  <SCORE.INTRA.POLAR.0>
0

>  <SCORE.INTRA.REPUL>
0

>  <SCORE.INTRA.REPUL.0>
0

>  <SCORE.INTRA.SOLV>
0.064829

>  <SCORE.INTRA.SOLV.lig_0>
-5.95779

>  <SCORE.INTRA.VDW>
-0.129986

>  <SCORE.INTRA.VDW.0>
3.81702

>  <SCORE.INTRA.norm>
0.0675424

>  <SCORE.RESTR>
0

>  <SCORE.RESTR.CAVITY>
0

>  <SCORE.RESTR.norm>
0

>  <SCORE.SYSTEM>
0

>  <SCORE.SYSTEM.CONST>
0

>  <SCORE.SYSTEM.DIHEDRAL>
0

>  <SCORE.SYSTEM.SOLV>
0

>  <SCORE.SYSTEM.norm>
0

>  <SCORE.heavy>
25

>  <SCORE.norm>
-1.94735

>  <RMSD>
1.845

$$$$
1q8n_lig
 OpenBabel11021811403D
libRbt.so/2013.1/901 2013/11/27
 25 27  0  0  0  0  0  0  0  0999 V2000
    0.8775    0.7311   -0.8007 C   0  0  0  0  0  0  0  0  0  0  0  0
    0.9043    2.0605   -1.7481 C   0  0  0  0  0  0  0  0  0  0  0  0
    2.6751   -4.4469   -3.1197 N   0  0  0  0  0  0  0  0  0  0  0  0
    1.1078    2.0204   -3.0867 C   0  0  0  0  0  0  0  0  0  0  0  0
   -0.8178    0.7727    4.9471 N   0  0  0  0  0  0  0  0  0  0  0  0
    1.1305    3.2516   -3.9098 C   0  0  0  0  0  0  0  0  0  0  0  0
    0.9427    4.4556   -3.3222 C   0  0  0  0  0  0  0  0  0  0  0  0
    0.7173    4.5204   -1.8971 C   0  0  0  0  0  0  0  0  0  0  0  0
    0.7011    3.4034   -1.1656 C   0  0  0  0  0  0  0  0  0  0  0  0
    1.3708   -0.6855   -1.4410 C   0  0  0  0  0  0  0  0  0  0  0  0
    2.0001   -0.7325   -2.6335 C   0  0  0  0  0  0  0  0  0  0  0  0
    2.4574   -2.0167   -3.2333 C   0  0  0  0  0  0  0  0  0  0  0  0
    2.2491   -3.1903   -2.5785 C   0  0  0  0  0  0  0  0  0  0  0  0
    1.5642   -3.1544   -1.2725 C   0  0  0  0  0  0  0  0  0  0  0  0
    1.1575   -1.9899   -0.7480 C   0  0  0  0  0  0  0  0  0  0  0  0
    0.3651    0.7930    0.7748 C   0  0  0  0  0  0  0  0  0  0  0  0
    0.7926   -0.2760    1.7423 C   0  0  0  0  0  0  0  0  0  0  0  0
    0.4231   -0.2794    3.0260 C   0  0  0  0  0  0  0  0  0  0  0  0
   -0.4364    0.7805    3.5658 C   0  0  0  0  0  0  0  0  0  0  0  0
   -0.8536    1.7611    2.7381 C   0  0  0  0  0  0  0  0  0  0  0  0
   -0.4433    1.7761    1.2937 C   0  0  0  0  0  0  0  0  0  0  0  0
    3.6414   -4.5374   -4.1716 C   0  0  0  0  0  0  0  0  0  0  0  0
    2.1346   -5.6692   -2.6106 C   0  0  0  0  0  0  0  0  0  0  0  0
   -0.7483   -0.4393    5.7117 C   0  0  0  0  0  0  0  0  0  0  0  0
   -1.2738    1.9756    5.6063 C   0  0  0  0  0  0  0  0  0  0  0  0
  1  2  1  0  0  0  0
  1 10  1  0  0  0  0
  1 16  1  0  0  0  0
  2  4  2  0  0  0  0
  2  9  1  0  0  0  0
  4  6  1  0  0  0  0
  6  7  2  0  0  0  0
  7  8  1  0  0  0  0
  8  9  2  0  0  0  0
 10 11  2  0  0  0  0
 10 15  1  0  0  0  0
 11 12  1  0  0  0  0
 12 13  2  0  0  0  0
 13  3  1  0  0  0  0
 13 14  1  0  0  0  0
 14 15  2  0  0  0  0
 16 17  2  0  0  0  0
 16 21  1  0  0  0  0
 17 18  1  0  0  0  0
 18 19  2  0  0  0  0
 19  5  1  0  0  0  0
 19 20  1  0  0  0  0
 20 21  2  0  0  0  0
 22  3  1  0  0  0  0
 23  3  1  0  0  0  0
 24  5  1  0  0  0  0
 25  5  1  0  0  0  0
M  END
>  <CHROM.1>
10.88997204,11.34235694,-158.36926370,17.22404351,-20.14430877,0.90674367
-0.02829506,-0.29079878,0.02062872,1.21756176,-0.58402417

>  <Name>
1q8n_lig

>  <RI>
0

>  <Rbt.Current_Directory>
/home/itssahil/PROJECTS/Mol_Feturizer/New_Systems/rnas/1q8n

>  <Rbt.Executable>
rbdock ($Id: //depot/dev/client3/rdock/2013.1/src/exe/rbdock.cxx#4 $)

>  <Rbt.Library>
libRbt.so (2013.1, Build901 2013/11/27)

>  <Rbt.Parameter_File>
/export/apps/rDock/src/rDock_2013.1_src/data/scripts/dock_solv.prm

>  <Rbt.Receptor>
prm/blind_docking_100.prm

>  <SCORE>
-48.7566

>  <SCORE.INTER>
-50.3306

>  <SCORE.INTER.CONST>
1

>  <SCORE.INTER.POLAR>
0

>  <SCORE.INTER.ROT>
5

>  <SCORE.INTER.SOLV>
9.49998

>  <SCORE.INTER.VDW>
-43.6537

>  <SCORE.INTER.norm>
-2.01322

>  <SCORE.INTRA>
1.57403

>  <SCORE.INTRA.DIHEDRAL>
2.64043

>  <SCORE.INTRA.DIHEDRAL.0>
2.1627

>  <SCORE.INTRA.POLAR>
0

>  <SCORE.INTRA.POLAR.0>
0

>  <SCORE.INTRA.REPUL>
0

>  <SCORE.INTRA.REPUL.0>
0

>  <SCORE.INTRA.SOLV>
0.0643867

>  <SCORE.INTRA.SOLV.lig_0>
-5.95779

>  <SCORE.INTRA.VDW>
0.221623

>  <SCORE.INTRA.VDW.0>
3.81702

>  <SCORE.INTRA.norm>
0.0629612

>  <SCORE.RESTR>
0

>  <SCORE.RESTR.CAVITY>
0

>  <SCORE.RESTR.norm>
0

>  <SCORE.SYSTEM>
0

>  <SCORE.SYSTEM.CONST>
0

>  <SCORE.SYSTEM.DIHEDRAL>
0

>  <SCORE.SYSTEM.SOLV>
0

>  <SCORE.SYSTEM.norm>
0

>  <SCORE.heavy>
25

>  <SCORE.norm>
-1.95026

>  <RMSD>
1.846

$$$$
1q8n_lig
 OpenBabel11021811403D
libRbt.so/2013.1/901 2013/11/27
 25 27  0  0  0  0  0  0  0  0999 V2000
    0.8609    0.7050   -0.7865 C   0  0  0  0  0  0  0  0  0  0  0  0
    0.8828    2.0309   -1.7389 C   0  0  0  0  0  0  0  0  0  0  0  0
    2.6643   -4.4614   -3.1268 N   0  0  0  0  0  0  0  0  0  0  0  0
    1.0344    1.9825   -3.0841 C   0  0  0  0  0  0  0  0  0  0  0  0
   -0.8141    0.7689    4.9671 N   0  0  0  0  0  0  0  0  0  0  0  0
    1.0545    3.2108   -3.9117 C   0  0  0  0  0  0  0  0  0  0  0  0
    0.9173    4.4203   -3.3216 C   0  0  0  0  0  0  0  0  0  0  0  0
    0.7476    4.4941   -1.8892 C   0  0  0  0  0  0  0  0  0  0  0  0
    0.7331    3.3797   -1.1538 C   0  0  0  0  0  0  0  0  0  0  0  0
    1.3547   -0.7131   -1.4230 C   0  0  0  0  0  0  0  0  0  0  0  0
    1.1990   -1.8730   -0.7516 C   0  0  0  0  0  0  0  0  0  0  0  0
    1.6438   -3.1769   -1.3171 C   0  0  0  0  0  0  0  0  0  0  0  0
    2.2243   -3.2275   -2.5458 C   0  0  0  0  0  0  0  0  0  0  0  0
    2.3993   -1.9676   -3.2928 C   0  0  0  0  0  0  0  0  0  0  0  0
    1.9948   -0.8024   -2.7681 C   0  0  0  0  0  0  0  0  0  0  0  0
    0.3529    0.7718    0.7903 C   0  0  0  0  0  0  0  0  0  0  0  0
    0.8087   -0.2765    1.7674 C   0  0  0  0  0  0  0  0  0  0  0  0
    0.4440   -0.2747    3.0525 C   0  0  0  0  0  0  0  0  0  0  0  0
   -0.4380    0.7708    3.5843 C   0  0  0  0  0  0  0  0  0  0  0  0
   -0.8808    1.7324    2.7479 C   0  0  0  0  0  0  0  0  0  0  0  0
   -0.4763    1.7415    1.3018 C   0  0  0  0  0  0  0  0  0  0  0  0
    3.6487   -4.5089   -4.1646 C   0  0  0  0  0  0  0  0  0  0  0  0
    2.1198   -5.7038   -2.6737 C   0  0  0  0  0  0  0  0  0  0  0  0
   -1.2593    1.9774    5.5991 C   0  0  0  0  0  0  0  0  0  0  0  0
   -0.7623   -0.4406    5.7570 C   0  0  0  0  0  0  0  0  0  0  0  0
  1  2  1  0  0  0  0
  1 10  1  0  0  0  0
  1 16  1  0  0  0  0
  2  4  2  0  0  0  0
  2  9  1  0  0  0  0
  4  6  1  0  0  0  0
  6  7  2  0  0  0  0
  7  8  1  0  0  0  0
  8  9  2  0  0  0  0
 10 11  2  0  0  0  0
 10 15  1  0  0  0  0
 11 12  1  0  0  0  0
 12 13  2  0  0  0  0
 13  3  1  0  0  0  0
 13 14  1  0  0  0  0
 14 15  2  0  0  0  0
 16 17  2  0  0  0  0
 16 21  1  0  0  0  0
 17 18  1  0  0  0  0
 18 19  2  0  0  0  0
 19  5  1  0  0  0  0
 19 20  1  0  0  0  0
 20 21  2  0  0  0  0
 22  3  1  0  0  0  0
 23  3  1  0  0  0  0
 24  5  1  0  0  0  0
 25  5  1  0  0  0  0
M  END
>  <CHROM.1>
13.35550204,-171.26531397,-157.06928948,-158.49180297,158.08781700,0.89961488
-0.04079461,-0.29307891,0.04119173,1.21999073,-0.59859229

>  <Name>
1q8n_lig

>  <RI>
0

>  <Rbt.Current_Directory>
/home/itssahil/PROJECTS/Mol_Feturizer/New_Systems/rnas/1q8n

>  <Rbt.Executable>
rbdock ($Id: //depot/dev/client3/rdock/2013.1/src/exe/rbdock.cxx#4 $)

>  <Rbt.Library>
libRbt.so (2013.1, Build901 2013/11/27)

>  <Rbt.Parameter_File>
/export/apps/rDock/src/rDock_2013.1_src/data/scripts/dock_solv.prm

>  <Rbt.Receptor>
prm/blind_docking_20.prm

>  <SCORE>
-48.7587

>  <SCORE.INTER>
-50.4278

>  <SCORE.INTER.CONST>
1

>  <SCORE.INTER.POLAR>
0

>  <SCORE.INTER.ROT>
5

>  <SCORE.INTER.SOLV>
9.47594

>  <SCORE.INTER.VDW>
-43.7105

>  <SCORE.INTER.norm>
-2.01711

>  <SCORE.INTRA>
1.6691

>  <SCORE.INTRA.DIHEDRAL>
3.50439

>  <SCORE.INTRA.DIHEDRAL.0>
2.1627

>  <SCORE.INTRA.POLAR>
0

>  <SCORE.INTRA.POLAR.0>
0

>  <SCORE.INTRA.REPUL>
0

>  <SCORE.INTRA.REPUL.0>
0

>  <SCORE.INTRA.SOLV>
0.0630998

>  <SCORE.INTRA.SOLV.lig_0>
-5.95779

>  <SCORE.INTRA.VDW>
-0.114643

>  <SCORE.INTRA.VDW.0>
3.81702

>  <SCORE.INTRA.norm>
0.066764

>  <SCORE.RESTR>
0

>  <SCORE.RESTR.CAVITY>
0

>  <SCORE.RESTR.norm>
0

>  <SCORE.SYSTEM>
0

>  <SCORE.SYSTEM.CONST>
0

>  <SCORE.SYSTEM.DIHEDRAL>
0

>  <SCORE.SYSTEM.SOLV>
0

>  <SCORE.SYSTEM.norm>
0

>  <SCORE.heavy>
25

>  <SCORE.norm>
-1.95035

>  <RMSD>
1.851

$$$$
1q8n_lig
 OpenBabel11021811403D
libRbt.so/2013.1/901 2013/11/27
 25 27  0  0  0  0  0  0  0  0999 V2000
    0.8868    0.7472   -0.7687 C   0  0  0  0  0  0  0  0  0  0  0  0
    0.9137    2.0746   -1.7190 C   0  0  0  0  0  0  0  0  0  0  0  0
    2.6996   -4.4162   -3.1084 N   0  0  0  0  0  0  0  0  0  0  0  0
    1.1106    2.0310   -3.0584 C   0  0  0  0  0  0  0  0  0  0  0  0
   -0.8156    0.8019    4.9768 N   0  0  0  0  0  0  0  0  0  0  0  0
    1.1336    3.2606   -3.8841 C   0  0  0  0  0  0  0  0  0  0  0  0
    0.9529    4.4663   -3.2980 C   0  0  0  0  0  0  0  0  0  0  0  0
    0.7346    4.5348   -1.8720 C   0  0  0  0  0  0  0  0  0  0  0  0
    0.7179    3.4193   -1.1382 C   0  0  0  0  0  0  0  0  0  0  0  0
    1.3828   -0.6702   -1.4052 C   0  0  0  0  0  0  0  0  0  0  0  0
    1.1467   -1.8401   -0.7759 C   0  0  0  0  0  0  0  0  0  0  0  0
    1.5922   -3.1435   -1.3421 C   0  0  0  0  0  0  0  0  0  0  0  0
    2.2559   -3.1832   -2.5283 C   0  0  0  0  0  0  0  0  0  0  0  0
    2.5193   -1.9122   -3.2291 C   0  0  0  0  0  0  0  0  0  0  0  0
    2.1130   -0.7477   -2.7044 C   0  0  0  0  0  0  0  0  0  0  0  0
    0.3715    0.8118    0.8058 C   0  0  0  0  0  0  0  0  0  0  0  0
    0.8160   -0.2427    1.7815 C   0  0  0  0  0  0  0  0  0  0  0  0
    0.4451   -0.2430    3.0648 C   0  0  0  0  0  0  0  0  0  0  0  0
   -0.4329    0.8062    3.5960 C   0  0  0  0  0  0  0  0  0  0  0  0
   -0.8656    1.7734    2.7607 C   0  0  0  0  0  0  0  0  0  0  0  0
   -0.4540    1.7849    1.3166 C   0  0  0  0  0  0  0  0  0  0  0  0
    3.7038   -4.4632   -4.1273 C   0  0  0  0  0  0  0  0  0  0  0  0
    2.1390   -5.6580   -2.6739 C   0  0  0  0  0  0  0  0  0  0  0  0
   -1.2806    2.0055    5.6042 C   0  0  0  0  0  0  0  0  0  0  0  0
   -0.7510   -0.4050    5.7696 C   0  0  0  0  0  0  0  0  0  0  0  0
  1  2  1  0  0  0  0
  1 10  1  0  0  0  0
  1 16  1  0  0  0  0
  2  4  2  0  0  0  0
  2  9  1  0  0  0  0
  4  6  1  0  0  0  0
  6  7  2  0  0  0  0
  7  8  1  0  0  0  0
  8  9  2  0  0  0  0
 10 11  2  0  0  0  0
 10 15  1  0  0  0  0
 11 12  1  0  0  0  0
 12 13  2  0  0  0  0
 13  3  1  0  0  0  0
 13 14  1  0  0  0  0
 14 15  2  0  0  0  0
 16 17  2  0  0  0  0
 16 21  1  0  0  0  0
 17 18  1  0  0  0  0
 18 19  2  0  0  0  0
 19  5  1  0  0  0  0
 19 20  1  0  0  0  0
 20 21  2  0  0  0  0
 22  3  1  0  0  0  0
 23  3  1  0  0  0  0
 24  5  1  0  0  0  0
 25  5  1  0  0  0  0
M  END
>  <CHROM.1>
11.34856670,-166.95512558,-157.41724070,-161.85878736,159.28159062,0.92265785
0.00044207,-0.27616412,0.02733460,1.21476437,-0.58423072

>  <Name>
1q8n_lig

>  <RI>
0

>  <Rbt.Current_Directory>
/home/itssahil/PROJECTS/Mol_Feturizer/New_Systems/rnas/1q8n

>  <Rbt.Executable>
rbdock ($Id: //depot/dev/client3/rdock/2013.1/src/exe/rbdock.cxx#4 $)

>  <Rbt.Library>
libRbt.so (2013.1, Build901 2013/11/27)

>  <Rbt.Parameter_File>
/export/apps/rDock/src/rDock_2013.1_src/data/scripts/dock_solv.prm

>  <Rbt.Receptor>
prm/blind_docking_40.prm

>  <SCORE>
-48.9231

>  <SCORE.INTER>
-50.4203

>  <SCORE.INTER.CONST>
1

>  <SCORE.INTER.POLAR>
0

>  <SCORE.INTER.ROT>
5

>  <SCORE.INTER.SOLV>
9.611

>  <SCORE.INTER.VDW>
-43.7506

>  <SCORE.INTER.norm>
-2.01681

>  <SCORE.INTRA>
1.49726

>  <SCORE.INTRA.DIHEDRAL>
2.84412

>  <SCORE.INTRA.DIHEDRAL.0>
2.1627

>  <SCORE.INTRA.POLAR>
0

>  <SCORE.INTRA.POLAR.0>
0

>  <SCORE.INTRA.REPUL>
0

>  <SCORE.INTRA.REPUL.0>
0

>  <SCORE.INTRA.SOLV>
0.062374

>  <SCORE.INTRA.SOLV.lig_0>
-5.95779

>  <SCORE.INTRA.VDW>
0.0440097

>  <SCORE.INTRA.VDW.0>
3.81702

>  <SCORE.INTRA.norm>
0.0598904

>  <SCORE.RESTR>
0

>  <SCORE.RESTR.CAVITY>
0

>  <SCORE.RESTR.norm>
0

>  <SCORE.SYSTEM>
0

>  <SCORE.SYSTEM.CONST>
0

>  <SCORE.SYSTEM.DIHEDRAL>
0

>  <SCORE.SYSTEM.SOLV>
0

>  <SCORE.SYSTEM.norm>
0

>  <SCORE.heavy>
25

>  <SCORE.norm>
-1.95692

>  <RMSD>
1.852

$$$$
1q8n_lig
 OpenBabel11021811403D
libRbt.so/2013.1/901 2013/11/27
 25 27  0  0  0  0  0  0  0  0999 V2000
    0.9456    0.5910   -0.9163 C   0  0  0  0  0  0  0  0  0  0  0  0
    0.9374    1.9832   -1.7691 C   0  0  0  0  0  0  0  0  0  0  0  0
   -0.8312    0.7277    4.7623 N   0  0  0  0  0  0  0  0  0  0  0  0
    1.1316    2.0404   -3.1085 C   0  0  0  0  0  0  0  0  0  0  0  0
    2.6071   -4.7088   -3.1667 N   0  0  0  0  0  0  0  0  0  0  0  0
    1.1222    3.3260   -3.8440 C   0  0  0  0  0  0  0  0  0  0  0  0
    0.9137    4.4820   -3.1730 C   0  0  0  0  0  0  0  0  0  0  0  0
    0.6978    4.4429   -1.7455 C   0  0  0  0  0  0  0  0  0  0  0  0
    0.7104    3.2777   -1.0934 C   0  0  0  0  0  0  0  0  0  0  0  0
    0.4573    0.6337    0.6394 C   0  0  0  0  0  0  0  0  0  0  0  0
   -0.3037    1.6454    1.1060 C   0  0  0  0  0  0  0  0  0  0  0  0
   -0.7585    1.7007    2.5230 C   0  0  0  0  0  0  0  0  0  0  0  0
   -0.4126    0.7133    3.3918 C   0  0  0  0  0  0  0  0  0  0  0  0
    0.4173   -0.4006    2.8954 C   0  0  0  0  0  0  0  0  0  0  0  0
    0.8196   -0.4338    1.6173 C   0  0  0  0  0  0  0  0  0  0  0  0
    1.4345   -0.8424   -1.5908 C   0  0  0  0  0  0  0  0  0  0  0  0
    1.2949   -2.1211   -0.8117 C   0  0  0  0  0  0  0  0  0  0  0  0
    1.6603   -3.3093   -1.3005 C   0  0  0  0  0  0  0  0  0  0  0  0
    2.2285   -3.4276   -2.6484 C   0  0  0  0  0  0  0  0  0  0  0  0
    2.3811   -2.3093   -3.3878 C   0  0  0  0  0  0  0  0  0  0  0  0
    1.9725   -0.9683   -2.8494 C   0  0  0  0  0  0  0  0  0  0  0  0
   -1.2142    1.9336    5.4314 C   0  0  0  0  0  0  0  0  0  0  0  0
   -0.8788   -0.4891    5.5122 C   0  0  0  0  0  0  0  0  0  0  0  0
    3.6115   -4.8108   -4.1861 C   0  0  0  0  0  0  0  0  0  0  0  0
    1.9983   -5.9254   -2.6781 C   0  0  0  0  0  0  0  0  0  0  0  0
  1  2  1  0  0  0  0
  1 10  1  0  0  0  0
  1 16  1  0  0  0  0
  2  4  2  0  0  0  0
  2  9  1  0  0  0  0
  4  6  1  0  0  0  0
  6  7  2  0  0  0  0
  7  8  1  0  0  0  0
  8  9  2  0  0  0  0
 10 11  2  0  0  0  0
 10 15  1  0  0  0  0
 11 12  1  0  0  0  0
 12 13  2  0  0  0  0
 13  3  1  0  0  0  0
 13 14  1  0  0  0  0
 14 15  2  0  0  0  0
 16 17  2  0  0  0  0
 16 21  1  0  0  0  0
 17 18  1  0  0  0  0
 18 19  2  0  0  0  0
 19  5  1  0  0  0  0
 19 20  1  0  0  0  0
 20 21  2  0  0  0  0
 22  3  1  0  0  0  0
 23  3  1  0  0  0  0
 24  5  1  0  0  0  0
 25  5  1  0  0  0  0
M  END
>  <CHROM.1>
-170.04663565,19.98853570,-173.86531843,-22.32548823,-154.83437980,0.91642216
-0.15431070,-0.37364022,-3.04129883,-1.22300293,2.60298103

>  <Name>
1q8n_lig

>  <RI>
0

>  <Rbt.Current_Directory>
/home/itssahil/PROJECTS/Mol_Feturizer/New_Systems/rnas/1q8n

>  <Rbt.Executable>
rbdock ($Id: //depot/dev/client3/rdock/2013.1/src/exe/rbdock.cxx#4 $)

>  <Rbt.Library>
libRbt.so (2013.1, Build901 2013/11/27)

>  <Rbt.Parameter_File>
/export/apps/rDock/src/rDock_2013.1_src/data/scripts/dock_solv.prm

>  <Rbt.Receptor>
prm/blind_docking_60.prm

>  <SCORE>
-49.0305

>  <SCORE.INTER>
-51.042

>  <SCORE.INTER.CONST>
1

>  <SCORE.INTER.POLAR>
0

>  <SCORE.INTER.ROT>
5

>  <SCORE.INTER.SOLV>
9.61699

>  <SCORE.INTER.VDW>
-44.167

>  <SCORE.INTER.norm>
-2.04168

>  <SCORE.INTRA>
2.01152

>  <SCORE.INTRA.DIHEDRAL>
4.15651

>  <SCORE.INTRA.DIHEDRAL.0>
2.1627

>  <SCORE.INTRA.POLAR>
0

>  <SCORE.INTRA.POLAR.0>
0

>  <SCORE.INTRA.REPUL>
0

>  <SCORE.INTRA.REPUL.0>
0

>  <SCORE.INTRA.SOLV>
0.0680332

>  <SCORE.INTRA.SOLV.lig_0>
-5.95779

>  <SCORE.INTRA.VDW>
-0.100751

>  <SCORE.INTRA.VDW.0>
3.81702

>  <SCORE.INTRA.norm>
0.0804609

>  <SCORE.RESTR>
0

>  <SCORE.RESTR.CAVITY>
0

>  <SCORE.RESTR.norm>
0

>  <SCORE.SYSTEM>
0

>  <SCORE.SYSTEM.CONST>
0

>  <SCORE.SYSTEM.DIHEDRAL>
0

>  <SCORE.SYSTEM.SOLV>
0

>  <SCORE.SYSTEM.norm>
0

>  <SCORE.heavy>
25

>  <SCORE.norm>
-1.96122

>  <RMSD>
1.853

$$$$
1q8n_lig
 OpenBabel11021811413D
libRbt.so/2013.1/901 2013/11/27
 25 27  0  0  0  0  0  0  0  0999 V2000
    0.8892    0.7149   -0.7844 C   0  0  0  0  0  0  0  0  0  0  0  0
    0.9110    2.0391   -1.7391 C   0  0  0  0  0  0  0  0  0  0  0  0
    2.6897   -4.4561   -3.1169 N   0  0  0  0  0  0  0  0  0  0  0  0
    1.0916    1.9905   -3.0807 C   0  0  0  0  0  0  0  0  0  0  0  0
   -0.7842    0.7873    4.9695 N   0  0  0  0  0  0  0  0  0  0  0  0
    1.1106    3.2173   -3.9104 C   0  0  0  0  0  0  0  0  0  0  0  0
    0.9427    4.4258   -3.3261 C   0  0  0  0  0  0  0  0  0  0  0  0
    0.7419    4.4997   -1.8977 C   0  0  0  0  0  0  0  0  0  0  0  0
    0.7287    3.3866   -1.1603 C   0  0  0  0  0  0  0  0  0  0  0  0
    1.3820   -0.7046   -1.4188 C   0  0  0  0  0  0  0  0  0  0  0  0
    1.1799   -1.8691   -0.7681 C   0  0  0  0  0  0  0  0  0  0  0  0
    1.6231   -3.1743   -1.3321 C   0  0  0  0  0  0  0  0  0  0  0  0
    2.2496   -3.2212   -2.5382 C   0  0  0  0  0  0  0  0  0  0  0  0
    2.4755   -1.9561   -3.2624 C   0  0  0  0  0  0  0  0  0  0  0  0
    2.0719   -0.7899   -2.7394 C   0  0  0  0  0  0  0  0  0  0  0  0
    0.3822    0.7846    0.7925 C   0  0  0  0  0  0  0  0  0  0  0  0
    0.8261   -0.2707    1.7676 C   0  0  0  0  0  0  0  0  0  0  0  0
    0.4616   -0.2671    3.0528 C   0  0  0  0  0  0  0  0  0  0  0  0
   -0.4083    0.7874    3.5867 C   0  0  0  0  0  0  0  0  0  0  0  0
   -0.8402    1.7556    2.7521 C   0  0  0  0  0  0  0  0  0  0  0  0
   -0.4358    1.7627    1.3059 C   0  0  0  0  0  0  0  0  0  0  0  0
    3.6716   -4.5051   -4.1570 C   0  0  0  0  0  0  0  0  0  0  0  0
    2.1480   -5.6980   -2.6591 C   0  0  0  0  0  0  0  0  0  0  0  0
   -0.7057   -0.4190    5.7422 C   0  0  0  0  0  0  0  0  0  0  0  0
   -1.2434    1.9925    5.6222 C   0  0  0  0  0  0  0  0  0  0  0  0
  1  2  1  0  0  0  0
  1 10  1  0  0  0  0
  1 16  1  0  0  0  0
  2  4  2  0  0  0  0
  2  9  1  0  0  0  0
  4  6  1  0  0  0  0
  6  7  2  0  0  0  0
  7  8  1  0  0  0  0
  8  9  2  0  0  0  0
 10 11  2  0  0  0  0
 10 15  1  0  0  0  0
 11 12  1  0  0  0  0
 12 13  2  0  0  0  0
 13  3  1  0  0  0  0
 13 14  1  0  0  0  0
 14 15  2  0  0  0  0
 16 17  2  0  0  0  0
 16 21  1  0  0  0  0
 17 18  1  0  0  0  0
 18 19  2  0  0  0  0
 19  5  1  0  0  0  0
 19 20  1  0  0  0  0
 20 21  2  0  0  0  0
 22  3  1  0  0  0  0
 23  3  1  0  0  0  0
 24  5  1  0  0  0  0
 25  5  1  0  0  0  0
M  END
>  <CHROM.1>
11.82810117,-168.68738726,-157.73212582,-161.21966086,-20.55735596,0.92788727
-0.03062837,-0.28965999,0.03845179,1.21979695,-0.59785925

>  <Name>
1q8n_lig

>  <RI>
0

>  <Rbt.Current_Directory>
/home/itssahil/PROJECTS/Mol_Feturizer/New_Systems/rnas/1q8n

>  <Rbt.Executable>
rbdock ($Id: //depot/dev/client3/rdock/2013.1/src/exe/rbdock.cxx#4 $)

>  <Rbt.Library>
libRbt.so (2013.1, Build901 2013/11/27)

>  <Rbt.Parameter_File>
/export/apps/rDock/src/rDock_2013.1_src/data/scripts/dock_solv.prm

>  <Rbt.Receptor>
prm/pocket_docking_8.prm

>  <SCORE>
-48.7996

>  <SCORE.INTER>
-50.3095

>  <SCORE.INTER.CONST>
1

>  <SCORE.INTER.POLAR>
0

>  <SCORE.INTER.ROT>
5

>  <SCORE.INTER.SOLV>
9.54624

>  <SCORE.INTER.VDW>
-43.6551

>  <SCORE.INTER.norm>
-2.01238

>  <SCORE.INTRA>
1.50994

>  <SCORE.INTRA.DIHEDRAL>
2.90609

>  <SCORE.INTRA.DIHEDRAL.0>
2.1627

>  <SCORE.INTRA.POLAR>
0

>  <SCORE.INTRA.POLAR.0>
0

>  <SCORE.INTRA.REPUL>
0

>  <SCORE.INTRA.REPUL.0>
0

>  <SCORE.INTRA.SOLV>
0.0633137

>  <SCORE.INTRA.SOLV.lig_0>
-5.95779

>  <SCORE.INTRA.VDW>
0.0252352

>  <SCORE.INTRA.VDW.0>
3.81702

>  <SCORE.INTRA.norm>
0.0603974

>  <SCORE.RESTR>
0

>  <SCORE.RESTR.CAVITY>
0

>  <SCORE.RESTR.norm>
0

>  <SCORE.SYSTEM>
0

>  <SCORE.SYSTEM.CONST>
0

>  <SCORE.SYSTEM.DIHEDRAL>
0

>  <SCORE.SYSTEM.SOLV>
0

>  <SCORE.SYSTEM.norm>
0

>  <SCORE.heavy>
25

>  <SCORE.norm>
-1.95198

>  <RMSD>
1.853

$$$$
1q8n_lig
 OpenBabel11021811413D
libRbt.so/2013.1/901 2013/11/27
 25 27  0  0  0  0  0  0  0  0999 V2000
    0.8813    0.7140   -0.8029 C   0  0  0  0  0  0  0  0  0  0  0  0
    0.9026    2.0441   -1.7495 C   0  0  0  0  0  0  0  0  0  0  0  0
    2.6927   -4.4567   -3.1276 N   0  0  0  0  0  0  0  0  0  0  0  0
    1.0791    2.0034   -3.0919 C   0  0  0  0  0  0  0  0  0  0  0  0
   -0.8033    0.7497    4.9481 N   0  0  0  0  0  0  0  0  0  0  0  0
    1.0977    3.2352   -3.9142 C   0  0  0  0  0  0  0  0  0  0  0  0
    0.9336    4.4403   -3.3219 C   0  0  0  0  0  0  0  0  0  0  0  0
    0.7371    4.5059   -1.8926 C   0  0  0  0  0  0  0  0  0  0  0  0
    0.7242    3.3883   -1.1619 C   0  0  0  0  0  0  0  0  0  0  0  0
    1.3784   -0.7006   -1.4448 C   0  0  0  0  0  0  0  0  0  0  0  0
    2.0073   -0.7447   -2.6376 C   0  0  0  0  0  0  0  0  0  0  0  0
    2.4680   -2.0270   -3.2388 C   0  0  0  0  0  0  0  0  0  0  0  0
    2.2633   -3.2018   -2.5850 C   0  0  0  0  0  0  0  0  0  0  0  0
    1.5788   -3.1691   -1.2787 C   0  0  0  0  0  0  0  0  0  0  0  0
    1.1691   -2.0062   -0.7529 C   0  0  0  0  0  0  0  0  0  0  0  0
    0.3707    0.7732    0.7733 C   0  0  0  0  0  0  0  0  0  0  0  0
    0.8234   -0.2810    1.7456 C   0  0  0  0  0  0  0  0  0  0  0  0
    0.4565   -0.2855    3.0300 C   0  0  0  0  0  0  0  0  0  0  0  0
   -0.4249    0.7583    3.5660 C   0  0  0  0  0  0  0  0  0  0  0  0
   -0.8649    1.7251    2.7339 C   0  0  0  0  0  0  0  0  0  0  0  0
   -0.4579    1.7413    1.2886 C   0  0  0  0  0  0  0  0  0  0  0  0
    2.1437   -5.7049   -2.6925 C   0  0  0  0  0  0  0  0  0  0  0  0
    3.7017   -4.4946   -4.1403 C   0  0  0  0  0  0  0  0  0  0  0  0
   -1.2690    1.9505    5.5800 C   0  0  0  0  0  0  0  0  0  0  0  0
   -0.7333   -0.4592    5.7375 C   0  0  0  0  0  0  0  0  0  0  0  0
  1  2  1  0  0  0  0
  1 10  1  0  0  0  0
  1 16  1  0  0  0  0
  2  4  2  0  0  0  0
  2  9  1  0  0  0  0
  4  6  1  0  0  0  0
  6  7  2  0  0  0  0
  7  8  1  0  0  0  0
  8  9  2  0  0  0  0
 10 11  2  0  0  0  0
 10 15  1  0  0  0  0
 11 12  1  0  0  0  0
 12 13  2  0  0  0  0
 13  3  1  0  0  0  0
 13 14  1  0  0  0  0
 14 15  2  0  0  0  0
 16 17  2  0  0  0  0
 16 21  1  0  0  0  0
 17 18  1  0  0  0  0
 18 19  2  0  0  0  0
 19  5  1  0  0  0  0
 19 20  1  0  0  0  0
 20 21  2  0  0  0  0
 22  3  1  0  0  0  0
 23  3  1  0  0  0  0
 24  5  1  0  0  0  0
 25  5  1  0  0  0  0
M  END
>  <CHROM.1>
12.19042201,11.40172310,-157.25138589,-160.11188023,159.13188102,0.91580224
-0.04359493,-0.29491231,0.03140132,1.21669406,-0.59298338

>  <Name>
1q8n_lig

>  <RI>
0

>  <Rbt.Current_Directory>
/home/itssahil/PROJECTS/Mol_Feturizer/New_Systems/rnas/1q8n

>  <Rbt.Executable>
rbdock ($Id: //depot/dev/client3/rdock/2013.1/src/exe/rbdock.cxx#4 $)

>  <Rbt.Library>
libRbt.so (2013.1, Build901 2013/11/27)

>  <Rbt.Parameter_File>
/export/apps/rDock/src/rDock_2013.1_src/data/scripts/dock_solv.prm

>  <Rbt.Receptor>
prm/pocket_docking_7.prm

>  <SCORE>
-48.6587

>  <SCORE.INTER>
-50.3061

>  <SCORE.INTER.CONST>
1

>  <SCORE.INTER.POLAR>
0

>  <SCORE.INTER.ROT>
5

>  <SCORE.INTER.SOLV>
9.48346

>  <SCORE.INTER.VDW>
-43.6319

>  <SCORE.INTER.norm>
-2.01225

>  <SCORE.INTRA>
1.64746

>  <SCORE.INTRA.DIHEDRAL>
3.10565

>  <SCORE.INTRA.DIHEDRAL.0>
2.1627

>  <SCORE.INTRA.POLAR>
0

>  <SCORE.INTRA.POLAR.0>
0

>  <SCORE.INTRA.REPUL>
0

>  <SCORE.INTRA.REPUL.0>
0

>  <SCORE.INTRA.SOLV>
0.0627061

>  <SCORE.INTRA.SOLV.lig_0>
-5.95779

>  <SCORE.INTRA.VDW>
0.063284

>  <SCORE.INTRA.VDW.0>
3.81702

>  <SCORE.INTRA.norm>
0.0658984

>  <SCORE.RESTR>
0

>  <SCORE.RESTR.CAVITY>
0

>  <SCORE.RESTR.norm>
0

>  <SCORE.SYSTEM>
0

>  <SCORE.SYSTEM.CONST>
0

>  <SCORE.SYSTEM.DIHEDRAL>
0

>  <SCORE.SYSTEM.SOLV>
0

>  <SCORE.SYSTEM.norm>
0

>  <SCORE.heavy>
25

>  <SCORE.norm>
-1.94635

>  <RMSD>
1.854

$$$$
1q8n_lig
 OpenBabel11021811403D
libRbt.so/2013.1/901 2013/11/27
 25 27  0  0  0  0  0  0  0  0999 V2000
    0.8957    0.7176   -0.6119 C   0  0  0  0  0  0  0  0  0  0  0  0
    0.9038    2.0672   -1.5307 C   0  0  0  0  0  0  0  0  0  0  0  0
    2.6760   -4.4025   -3.0688 N   0  0  0  0  0  0  0  0  0  0  0  0
    0.7261    3.3133   -1.0301 C   0  0  0  0  0  0  0  0  0  0  0  0
   -1.0272    0.9938    5.0572 N   0  0  0  0  0  0  0  0  0  0  0  0
    0.7348    4.5121   -1.9000 C   0  0  0  0  0  0  0  0  0  0  0  0
    0.9257    4.3738   -3.2320 C   0  0  0  0  0  0  0  0  0  0  0  0
    1.1238    3.0547   -3.7857 C   0  0  0  0  0  0  0  0  0  0  0  0
    1.1120    1.9814   -2.9913 C   0  0  0  0  0  0  0  0  0  0  0  0
    1.3842   -0.6830   -1.2900 C   0  0  0  0  0  0  0  0  0  0  0  0
    2.0036   -0.7012   -2.4885 C   0  0  0  0  0  0  0  0  0  0  0  0
    2.4563   -1.9704   -3.1225 C   0  0  0  0  0  0  0  0  0  0  0  0
    2.2540   -3.1594   -2.4942 C   0  0  0  0  0  0  0  0  0  0  0  0
    1.5800   -3.1551   -1.1821 C   0  0  0  0  0  0  0  0  0  0  0  0
    1.1772   -2.0037   -0.6265 C   0  0  0  0  0  0  0  0  0  0  0  0
    0.4065    0.7435    0.9720 C   0  0  0  0  0  0  0  0  0  0  0  0
   -0.4772    1.8568    1.4632 C   0  0  0  0  0  0  0  0  0  0  0  0
   -0.9138    1.9310    2.7235 C   0  0  0  0  0  0  0  0  0  0  0  0
   -0.5442    0.9100    3.7107 C   0  0  0  0  0  0  0  0  0  0  0  0
    0.2525   -0.1077    3.3233 C   0  0  0  0  0  0  0  0  0  0  0  0
    0.7481   -0.2024    1.9089 C   0  0  0  0  0  0  0  0  0  0  0  0
    2.1497   -5.6614   -2.6367 C   0  0  0  0  0  0  0  0  0  0  0  0
    3.6542   -4.4170   -4.1119 C   0  0  0  0  0  0  0  0  0  0  0  0
   -1.4350    2.2560    5.6041 C   0  0  0  0  0  0  0  0  0  0  0  0
   -1.1227   -0.1805    5.8945 C   0  0  0  0  0  0  0  0  0  0  0  0
  1  2  1  0  0  0  0
  1 10  1  0  0  0  0
  1 16  1  0  0  0  0
  2  4  2  0  0  0  0
  2  9  1  0  0  0  0
  4  6  1  0  0  0  0
  6  7  2  0  0  0  0
  7  8  1  0  0  0  0
  8  9  2  0  0  0  0
 10 11  2  0  0  0  0
 10 15  1  0  0  0  0
 11 12  1  0  0  0  0
 12 13  2  0  0  0  0
 13  3  1  0  0  0  0
 13 14  1  0  0  0  0
 14 15  2  0  0  0  0
 16 17  2  0  0  0  0
 16 21  1  0  0  0  0
 17 18  1  0  0  0  0
 18 19  2  0  0  0  0
 19  5  1  0  0  0  0
 19 20  1  0  0  0  0
 20 21  2  0  0  0  0
 22  3  1  0  0  0  0
 23  3  1  0  0  0  0
 24  5  1  0  0  0  0
 25  5  1  0  0  0  0
M  END
>  <CHROM.1>
-169.18244087,11.77740696,21.47870991,-161.57530999,-23.31456636,0.86395017
0.02277885,-0.17767665,-0.01149582,1.20496279,-0.55405555

>  <Name>
1q8n_lig

>  <RI>
0

>  <Rbt.Current_Directory>
/home/itssahil/PROJECTS/Mol_Feturizer/New_Systems/rnas/1q8n

>  <Rbt.Executable>
rbdock ($Id: //depot/dev/client3/rdock/2013.1/src/exe/rbdock.cxx#4 $)

>  <Rbt.Library>
libRbt.so (2013.1, Build901 2013/11/27)

>  <Rbt.Parameter_File>
/export/apps/rDock/src/rDock_2013.1_src/data/scripts/dock_solv.prm

>  <Rbt.Receptor>
prm/blind_docking_80.prm

>  <SCORE>
-48.3417

>  <SCORE.INTER>
-50.1255

>  <SCORE.INTER.CONST>
1

>  <SCORE.INTER.POLAR>
0

>  <SCORE.INTER.ROT>
5

>  <SCORE.INTER.SOLV>
9.49427

>  <SCORE.INTER.VDW>
-43.5151

>  <SCORE.INTER.norm>
-2.00502

>  <SCORE.INTRA>
1.78375

>  <SCORE.INTRA.DIHEDRAL>
3.28116

>  <SCORE.INTRA.DIHEDRAL.0>
2.1627

>  <SCORE.INTRA.POLAR>
0

>  <SCORE.INTRA.POLAR.0>
0

>  <SCORE.INTRA.REPUL>
0

>  <SCORE.INTRA.REPUL.0>
0

>  <SCORE.INTRA.SOLV>
0.0645996

>  <SCORE.INTRA.SOLV.lig_0>
-5.95779

>  <SCORE.INTRA.VDW>
0.110866

>  <SCORE.INTRA.VDW.0>
3.81702

>  <SCORE.INTRA.norm>
0.0713498

>  <SCORE.RESTR>
0

>  <SCORE.RESTR.CAVITY>
0

>  <SCORE.RESTR.norm>
0

>  <SCORE.SYSTEM>
0

>  <SCORE.SYSTEM.CONST>
0

>  <SCORE.SYSTEM.DIHEDRAL>
0

>  <SCORE.SYSTEM.SOLV>
0

>  <SCORE.SYSTEM.norm>
0

>  <SCORE.heavy>
25

>  <SCORE.norm>
-1.93367

>  <RMSD>
1.855

$$$$
1q8n_lig
 OpenBabel11021811403D
libRbt.so/2013.1/901 2013/11/27
 25 27  0  0  0  0  0  0  0  0999 V2000
    0.9921    0.5878   -0.9057 C   0  0  0  0  0  0  0  0  0  0  0  0
    0.9706    1.9824   -1.7542 C   0  0  0  0  0  0  0  0  0  0  0  0
   -0.7712    0.7328    4.7769 N   0  0  0  0  0  0  0  0  0  0  0  0
    1.1810    2.0475   -3.0908 C   0  0  0  0  0  0  0  0  0  0  0  0
    2.6765   -4.6938   -3.1817 N   0  0  0  0  0  0  0  0  0  0  0  0
    1.1586    3.3352   -3.8224 C   0  0  0  0  0  0  0  0  0  0  0  0
    0.9215    4.4851   -3.1505 C   0  0  0  0  0  0  0  0  0  0  0  0
    0.6879    4.4376   -1.7261 C   0  0  0  0  0  0  0  0  0  0  0  0
    0.7125    3.2706   -1.0775 C   0  0  0  0  0  0  0  0  0  0  0  0
    0.5103    0.6224    0.6522 C   0  0  0  0  0  0  0  0  0  0  0  0
    0.8803   -0.3420    1.5202 C   0  0  0  0  0  0  0  0  0  0  0  0
    0.4499   -0.3266    2.9458 C   0  0  0  0  0  0  0  0  0  0  0  0
   -0.3370    0.6796    3.4122 C   0  0  0  0  0  0  0  0  0  0  0  0
   -0.7478    1.7424    2.4753 C   0  0  0  0  0  0  0  0  0  0  0  0
   -0.3529    1.7122    1.1948 C   0  0  0  0  0  0  0  0  0  0  0  0
    1.4880   -0.8402   -1.5867 C   0  0  0  0  0  0  0  0  0  0  0  0
    1.3394   -2.1252   -0.8198 C   0  0  0  0  0  0  0  0  0  0  0  0
    1.7098   -3.3095   -1.3145 C   0  0  0  0  0  0  0  0  0  0  0  0
    2.2927   -3.4168   -2.6570 C   0  0  0  0  0  0  0  0  0  0  0  0
    2.4537   -2.2925   -3.3853 C   0  0  0  0  0  0  0  0  0  0  0  0
    2.0396   -0.9559   -2.8404 C   0  0  0  0  0  0  0  0  0  0  0  0
   -1.2397    1.9419    5.3828 C   0  0  0  0  0  0  0  0  0  0  0  0
   -0.7480   -0.4467    5.5852 C   0  0  0  0  0  0  0  0  0  0  0  0
    3.6866   -4.7871   -4.1963 C   0  0  0  0  0  0  0  0  0  0  0  0
    2.0674   -5.9148   -2.7046 C   0  0  0  0  0  0  0  0  0  0  0  0
  1  2  1  0  0  0  0
  1 10  1  0  0  0  0
  1 16  1  0  0  0  0
  2  4  2  0  0  0  0
  2  9  1  0  0  0  0
  4  6  1  0  0  0  0
  6  7  2  0  0  0  0
  7  8  1  0  0  0  0
  8  9  2  0  0  0  0
 10 11  2  0  0  0  0
 10 15  1  0  0  0  0
 11 12  1  0  0  0  0
 12 13  2  0  0  0  0
 13  3  1  0  0  0  0
 13 14  1  0  0  0  0
 14 15  2  0  0  0  0
 16 17  2  0  0  0  0
 16 21  1  0  0  0  0
 17 18  1  0  0  0  0
 18 19  2  0  0  0  0
 19  5  1  0  0  0  0
 19 20  1  0  0  0  0
 20 21  2  0  0  0  0
 22  3  1  0  0  0  0
 23  3  1  0  0  0  0
 24  5  1  0  0  0  0
 25  5  1  0  0  0  0
M  END
>  <CHROM.1>
-171.20183798,-158.96727113,-172.84999267,160.70118689,-155.18732632,0.95998406
-0.13884505,-0.36903856,-0.08433407,1.22084594,-0.55784163

>  <Name>
1q8n_lig

>  <RI>
0

>  <Rbt.Current_Directory>
/home/itssahil/PROJECTS/Mol_Feturizer/New_Systems/rnas/1q8n

>  <Rbt.Executable>
rbdock ($Id: //depot/dev/client3/rdock/2013.1/src/exe/rbdock.cxx#4 $)

>  <Rbt.Library>
libRbt.so (2013.1, Build901 2013/11/27)

>  <Rbt.Parameter_File>
/export/apps/rDock/src/rDock_2013.1_src/data/scripts/dock_solv.prm

>  <Rbt.Receptor>
prm/blind_docking_100.prm

>  <SCORE>
-49.3333

>  <SCORE.INTER>
-51.1859

>  <SCORE.INTER.CONST>
1

>  <SCORE.INTER.POLAR>
0

>  <SCORE.INTER.ROT>
5

>  <SCORE.INTER.SOLV>
9.70809

>  <SCORE.INTER.VDW>
-44.2933

>  <SCORE.INTER.norm>
-2.04743

>  <SCORE.INTRA>
1.85261

>  <SCORE.INTRA.DIHEDRAL>
3.64902

>  <SCORE.INTRA.DIHEDRAL.0>
2.1627

>  <SCORE.INTRA.POLAR>
0

>  <SCORE.INTRA.POLAR.0>
0

>  <SCORE.INTRA.REPUL>
0

>  <SCORE.INTRA.REPUL.0>
0

>  <SCORE.INTRA.SOLV>
0.067432

>  <SCORE.INTRA.SOLV.lig_0>
-5.95779

>  <SCORE.INTRA.VDW>
-0.00561858

>  <SCORE.INTRA.VDW.0>
3.81702

>  <SCORE.INTRA.norm>
0.0741043

>  <SCORE.RESTR>
0

>  <SCORE.RESTR.CAVITY>
0

>  <SCORE.RESTR.norm>
0

>  <SCORE.SYSTEM>
0

>  <SCORE.SYSTEM.CONST>
0

>  <SCORE.SYSTEM.DIHEDRAL>
0

>  <SCORE.SYSTEM.SOLV>
0

>  <SCORE.SYSTEM.norm>
0

>  <SCORE.heavy>
25

>  <SCORE.norm>
-1.97333

>  <RMSD>
1.859

$$$$
1q8n_lig
 OpenBabel11021811403D
libRbt.so/2013.1/901 2013/11/27
 25 27  0  0  0  0  0  0  0  0999 V2000
    0.8784    0.7314   -0.7816 C   0  0  0  0  0  0  0  0  0  0  0  0
    0.9079    2.0627   -1.7262 C   0  0  0  0  0  0  0  0  0  0  0  0
    2.6652   -4.4455   -3.1115 N   0  0  0  0  0  0  0  0  0  0  0  0
    1.0993    2.0240   -3.0666 C   0  0  0  0  0  0  0  0  0  0  0  0
   -0.8103    0.7702    4.9682 N   0  0  0  0  0  0  0  0  0  0  0  0
    1.1250    3.2569   -3.8871 C   0  0  0  0  0  0  0  0  0  0  0  0
    0.9525    4.4610   -3.2951 C   0  0  0  0  0  0  0  0  0  0  0  0
    0.7402    4.5244   -1.8679 C   0  0  0  0  0  0  0  0  0  0  0  0
    0.7210    3.4059   -1.1389 C   0  0  0  0  0  0  0  0  0  0  0  0
    1.3685   -0.6849   -1.4250 C   0  0  0  0  0  0  0  0  0  0  0  0
    1.9474   -0.7369   -2.6425 C   0  0  0  0  0  0  0  0  0  0  0  0
    2.4009   -2.0209   -3.2455 C   0  0  0  0  0  0  0  0  0  0  0  0
    2.2409   -3.1892   -2.5681 C   0  0  0  0  0  0  0  0  0  0  0  0
    1.6114   -3.1479   -1.2347 C   0  0  0  0  0  0  0  0  0  0  0  0
    1.2073   -1.9836   -0.7076 C   0  0  0  0  0  0  0  0  0  0  0  0
    0.3663    0.7910    0.7941 C   0  0  0  0  0  0  0  0  0  0  0  0
    0.8262   -0.2571    1.7696 C   0  0  0  0  0  0  0  0  0  0  0  0
    0.4585   -0.2608    3.0538 C   0  0  0  0  0  0  0  0  0  0  0  0
   -0.4310    0.7779    3.5863 C   0  0  0  0  0  0  0  0  0  0  0  0
   -0.8778    1.7390    2.7513 C   0  0  0  0  0  0  0  0  0  0  0  0
   -0.4699    1.7543    1.3062 C   0  0  0  0  0  0  0  0  0  0  0  0
    2.1353   -5.6937   -2.6538 C   0  0  0  0  0  0  0  0  0  0  0  0
    3.6495   -4.4846   -4.1483 C   0  0  0  0  0  0  0  0  0  0  0  0
   -0.7486   -0.4438    5.7303 C   0  0  0  0  0  0  0  0  0  0  0  0
   -1.2563    1.9751    5.6305 C   0  0  0  0  0  0  0  0  0  0  0  0
  1  2  1  0  0  0  0
  1 10  1  0  0  0  0
  1 16  1  0  0  0  0
  2  4  2  0  0  0  0
  2  9  1  0  0  0  0
  4  6  1  0  0  0  0
  6  7  2  0  0  0  0
  7  8  1  0  0  0  0
  8  9  2  0  0  0  0
 10 11  2  0  0  0  0
 10 15  1  0  0  0  0
 11 12  1  0  0  0  0
 12 13  2  0  0  0  0
 13  3  1  0  0  0  0
 13 14  1  0  0  0  0
 14 15  2  0  0  0  0
 16 17  2  0  0  0  0
 16 21  1  0  0  0  0
 17 18  1  0  0  0  0
 18 19  2  0  0  0  0
 19  5  1  0  0  0  0
 19 20  1  0  0  0  0
 20 21  2  0  0  0  0
 22  3  1  0  0  0  0
 23  3  1  0  0  0  0
 24  5  1  0  0  0  0
 25  5  1  0  0  0  0
M  END
>  <CHROM.1>
11.49727195,8.54913363,-156.47071803,-158.95563630,-22.32715022,0.90959468
-0.02655900,-0.27416260,0.02357352,1.21939228,-0.58469788

>  <Name>
1q8n_lig

>  <RI>
0

>  <Rbt.Current_Directory>
/home/itssahil/PROJECTS/Mol_Feturizer/New_Systems/rnas/1q8n

>  <Rbt.Executable>
rbdock ($Id: //depot/dev/client3/rdock/2013.1/src/exe/rbdock.cxx#4 $)

>  <Rbt.Library>
libRbt.so (2013.1, Build901 2013/11/27)

>  <Rbt.Parameter_File>
/export/apps/rDock/src/rDock_2013.1_src/data/scripts/dock_solv.prm

>  <Rbt.Receptor>
prm/pocket_docking_5.prm

>  <SCORE>
-48.7294

>  <SCORE.INTER>
-50.476

>  <SCORE.INTER.CONST>
1

>  <SCORE.INTER.POLAR>
0

>  <SCORE.INTER.ROT>
5

>  <SCORE.INTER.SOLV>
9.52625

>  <SCORE.INTER.VDW>
-43.7594

>  <SCORE.INTER.norm>
-2.01904

>  <SCORE.INTRA>
1.74656

>  <SCORE.INTRA.DIHEDRAL>
3.4982

>  <SCORE.INTRA.DIHEDRAL.0>
2.1627

>  <SCORE.INTRA.POLAR>
0

>  <SCORE.INTRA.POLAR.0>
0

>  <SCORE.INTRA.REPUL>
0

>  <SCORE.INTRA.REPUL.0>
0

>  <SCORE.INTRA.SOLV>
0.0637224

>  <SCORE.INTRA.SOLV.lig_0>
-5.95779

>  <SCORE.INTRA.VDW>
-0.0343997

>  <SCORE.INTRA.VDW.0>
3.81702

>  <SCORE.INTRA.norm>
0.0698624

>  <SCORE.RESTR>
0

>  <SCORE.RESTR.CAVITY>
0

>  <SCORE.RESTR.norm>
0

>  <SCORE.SYSTEM>
0

>  <SCORE.SYSTEM.CONST>
0

>  <SCORE.SYSTEM.DIHEDRAL>
0

>  <SCORE.SYSTEM.SOLV>
0

>  <SCORE.SYSTEM.norm>
0

>  <SCORE.heavy>
25

>  <SCORE.norm>
-1.94918

>  <RMSD>
1.862

$$$$
1q8n_lig
 OpenBabel11021811403D
libRbt.so/2013.1/901 2013/11/27
 25 27  0  0  0  0  0  0  0  0999 V2000
    0.8796    0.7289   -0.7790 C   0  0  0  0  0  0  0  0  0  0  0  0
    0.9097    2.0605   -1.7231 C   0  0  0  0  0  0  0  0  0  0  0  0
    2.6634   -4.4480   -3.1113 N   0  0  0  0  0  0  0  0  0  0  0  0
    1.0985    2.0221   -3.0640 C   0  0  0  0  0  0  0  0  0  0  0  0
   -0.8093    0.7652    4.9707 N   0  0  0  0  0  0  0  0  0  0  0  0
    1.1248    3.2554   -3.8839 C   0  0  0  0  0  0  0  0  0  0  0  0
    0.9556    4.4595   -3.2911 C   0  0  0  0  0  0  0  0  0  0  0  0
    0.7461    4.5226   -1.8635 C   0  0  0  0  0  0  0  0  0  0  0  0
    0.7263    3.4038   -1.1349 C   0  0  0  0  0  0  0  0  0  0  0  0
    1.3688   -0.6875   -1.4231 C   0  0  0  0  0  0  0  0  0  0  0  0
    1.9403   -0.7402   -2.6441 C   0  0  0  0  0  0  0  0  0  0  0  0
    2.3929   -2.0242   -3.2477 C   0  0  0  0  0  0  0  0  0  0  0  0
    2.2396   -3.1917   -2.5674 C   0  0  0  0  0  0  0  0  0  0  0  0
    1.6183   -3.1495   -1.2301 C   0  0  0  0  0  0  0  0  0  0  0  0
    1.2149   -1.9853   -0.7025 C   0  0  0  0  0  0  0  0  0  0  0  0
    0.3677    0.7882    0.7968 C   0  0  0  0  0  0  0  0  0  0  0  0
    0.8209   -0.2651    1.7699 C   0  0  0  0  0  0  0  0  0  0  0  0
    0.4531   -0.2694    3.0541 C   0  0  0  0  0  0  0  0  0  0  0  0
   -0.4299    0.7737    3.5889 C   0  0  0  0  0  0  0  0  0  0  0  0
   -0.8704    1.7395    2.7561 C   0  0  0  0  0  0  0  0  0  0  0  0
   -0.4624    1.7555    1.3110 C   0  0  0  0  0  0  0  0  0  0  0  0
    2.1213   -5.6953   -2.6653 C   0  0  0  0  0  0  0  0  0  0  0  0
    3.6596   -4.4881   -4.1366 C   0  0  0  0  0  0  0  0  0  0  0  0
   -1.2756    1.9662    5.6021 C   0  0  0  0  0  0  0  0  0  0  0  0
   -0.7400   -0.4436    5.7603 C   0  0  0  0  0  0  0  0  0  0  0  0
  1  2  1  0  0  0  0
  1 10  1  0  0  0  0
  1 16  1  0  0  0  0
  2  4  2  0  0  0  0
  2  9  1  0  0  0  0
  4  6  1  0  0  0  0
  6  7  2  0  0  0  0
  7  8  1  0  0  0  0
  8  9  2  0  0  0  0
 10 11  2  0  0  0  0
 10 15  1  0  0  0  0
 11 12  1  0  0  0  0
 12 13  2  0  0  0  0
 13  3  1  0  0  0  0
 13 14  1  0  0  0  0
 14 15  2  0  0  0  0
 16 17  2  0  0  0  0
 16 21  1  0  0  0  0
 17 18  1  0  0  0  0
 18 19  2  0  0  0  0
 19  5  1  0  0  0  0
 19 20  1  0  0  0  0
 20 21  2  0  0  0  0
 22  3  1  0  0  0  0
 23  3  1  0  0  0  0
 24  5  1  0  0  0  0
 25  5  1  0  0  0  0
M  END
>  <CHROM.1>
11.62073985,8.15118977,-156.82204509,-157.78603437,159.06393717,0.90972719
-0.02945145,-0.27212462,0.02248691,1.21939335,-0.58320934

>  <Name>
1q8n_lig

>  <RI>
0

>  <Rbt.Current_Directory>
/home/itssahil/PROJECTS/Mol_Feturizer/New_Systems/rnas/1q8n

>  <Rbt.Executable>
rbdock ($Id: //depot/dev/client3/rdock/2013.1/src/exe/rbdock.cxx#4 $)

>  <Rbt.Library>
libRbt.so (2013.1, Build901 2013/11/27)

>  <Rbt.Parameter_File>
/export/apps/rDock/src/rDock_2013.1_src/data/scripts/dock_solv.prm

>  <Rbt.Receptor>
prm/pocket_docking_5.prm

>  <SCORE>
-48.6306

>  <SCORE.INTER>
-50.4468

>  <SCORE.INTER.CONST>
1

>  <SCORE.INTER.POLAR>
0

>  <SCORE.INTER.ROT>
5

>  <SCORE.INTER.SOLV>
9.51077

>  <SCORE.INTER.VDW>
-43.7348

>  <SCORE.INTER.norm>
-2.01787

>  <SCORE.INTRA>
1.81619

>  <SCORE.INTRA.DIHEDRAL>
3.46425

>  <SCORE.INTRA.DIHEDRAL.0>
2.1627

>  <SCORE.INTRA.POLAR>
0

>  <SCORE.INTRA.POLAR.0>
0

>  <SCORE.INTRA.REPUL>
0

>  <SCORE.INTRA.REPUL.0>
0

>  <SCORE.INTRA.SOLV>
0.0641227

>  <SCORE.INTRA.SOLV.lig_0>
-5.95779

>  <SCORE.INTRA.VDW>
0.0520044

>  <SCORE.INTRA.VDW.0>
3.81702

>  <SCORE.INTRA.norm>
0.0726476

>  <SCORE.RESTR>
0

>  <SCORE.RESTR.CAVITY>
0

>  <SCORE.RESTR.norm>
0

>  <SCORE.SYSTEM>
0

>  <SCORE.SYSTEM.CONST>
0

>  <SCORE.SYSTEM.DIHEDRAL>
0

>  <SCORE.SYSTEM.SOLV>
0

>  <SCORE.SYSTEM.norm>
0

>  <SCORE.heavy>
25

>  <SCORE.norm>
-1.94523

>  <RMSD>
1.864

$$$$
1q8n_lig
 OpenBabel11021811403D
libRbt.so/2013.1/901 2013/11/27
 25 27  0  0  0  0  0  0  0  0999 V2000
    0.8751    0.7222   -0.7859 C   0  0  0  0  0  0  0  0  0  0  0  0
    0.9074    2.0572   -1.7251 C   0  0  0  0  0  0  0  0  0  0  0  0
    2.7023   -4.4384   -3.1208 N   0  0  0  0  0  0  0  0  0  0  0  0
    1.0968    2.0235   -3.0659 C   0  0  0  0  0  0  0  0  0  0  0  0
   -0.8762    0.7189    4.9452 N   0  0  0  0  0  0  0  0  0  0  0  0
    1.1251    3.2598   -3.8813 C   0  0  0  0  0  0  0  0  0  0  0  0
    0.9569    4.4619   -3.2841 C   0  0  0  0  0  0  0  0  0  0  0  0
    0.7468    4.5200   -1.8564 C   0  0  0  0  0  0  0  0  0  0  0  0
    0.7252    3.3985   -1.1319 C   0  0  0  0  0  0  0  0  0  0  0  0
    1.3765   -0.6897   -1.4306 C   0  0  0  0  0  0  0  0  0  0  0  0
    1.9964   -0.7306   -2.6283 C   0  0  0  0  0  0  0  0  0  0  0  0
    2.4607   -2.0104   -3.2320 C   0  0  0  0  0  0  0  0  0  0  0  0
    2.2689   -3.1859   -2.5758 C   0  0  0  0  0  0  0  0  0  0  0  0
    1.5945   -3.1567   -1.2642 C   0  0  0  0  0  0  0  0  0  0  0  0
    1.1812   -1.9961   -0.7361 C   0  0  0  0  0  0  0  0  0  0  0  0
    0.3494    0.7735    0.7856 C   0  0  0  0  0  0  0  0  0  0  0  0
    0.7246   -0.3301    1.7357 C   0  0  0  0  0  0  0  0  0  0  0  0
    0.3421   -0.3438    3.0155 C   0  0  0  0  0  0  0  0  0  0  0  0
   -0.4807    0.7385    3.5680 C   0  0  0  0  0  0  0  0  0  0  0  0
   -0.8505    1.7506    2.7560 C   0  0  0  0  0  0  0  0  0  0  0  0
   -0.4252    1.7775    1.3161 C   0  0  0  0  0  0  0  0  0  0  0  0
    2.1541   -5.6889   -2.6913 C   0  0  0  0  0  0  0  0  0  0  0  0
    3.7148   -4.4715   -4.1302 C   0  0  0  0  0  0  0  0  0  0  0  0
   -1.2542    1.9336    5.6085 C   0  0  0  0  0  0  0  0  0  0  0  0
   -0.9116   -0.5145    5.6981 C   0  0  0  0  0  0  0  0  0  0  0  0
  1  2  1  0  0  0  0
  1 10  1  0  0  0  0
  1 16  1  0  0  0  0
  2  4  2  0  0  0  0
  2  9  1  0  0  0  0
  4  6  1  0  0  0  0
  6  7  2  0  0  0  0
  7  8  1  0  0  0  0
  8  9  2  0  0  0  0
 10 11  2  0  0  0  0
 10 15  1  0  0  0  0
 11 12  1  0  0  0  0
 12 13  2  0  0  0  0
 13  3  1  0  0  0  0
 13 14  1  0  0  0  0
 14 15  2  0  0  0  0
 16 17  2  0  0  0  0
 16 21  1  0  0  0  0
 17 18  1  0  0  0  0
 18 19  2  0  0  0  0
 19  5  1  0  0  0  0
 19 20  1  0  0  0  0
 20 21  2  0  0  0  0
 22  3  1  0  0  0  0
 23  3  1  0  0  0  0
 24  5  1  0  0  0  0
 25  5  1  0  0  0  0
M  END
>  <CHROM.1>
12.19461158,10.24399914,-160.85790383,-159.38235777,158.07671826,0.90095866
-0.04069679,-0.28253051,0.00482194,1.20917048,-0.56106525

>  <Name>
1q8n_lig

>  <RI>
0

>  <Rbt.Current_Directory>
/home/itssahil/PROJECTS/Mol_Feturizer/New_Systems/rnas/1q8n

>  <Rbt.Executable>
rbdock ($Id: //depot/dev/client3/rdock/2013.1/src/exe/rbdock.cxx#4 $)

>  <Rbt.Library>
libRbt.so (2013.1, Build901 2013/11/27)

>  <Rbt.Parameter_File>
/export/apps/rDock/src/rDock_2013.1_src/data/scripts/dock_solv.prm

>  <Rbt.Receptor>
prm/blind_docking_20.prm

>  <SCORE>
-48.562

>  <SCORE.INTER>
-50.388

>  <SCORE.INTER.CONST>
1

>  <SCORE.INTER.POLAR>
0

>  <SCORE.INTER.ROT>
5

>  <SCORE.INTER.SOLV>
9.5061

>  <SCORE.INTER.VDW>
-43.694

>  <SCORE.INTER.norm>
-2.01552

>  <SCORE.INTRA>
1.82603

>  <SCORE.INTRA.DIHEDRAL>
3.37161

>  <SCORE.INTRA.DIHEDRAL.0>
2.1627

>  <SCORE.INTRA.POLAR>
0

>  <SCORE.INTRA.POLAR.0>
0

>  <SCORE.INTRA.REPUL>
0

>  <SCORE.INTRA.REPUL.0>
0

>  <SCORE.INTRA.SOLV>
0.066022

>  <SCORE.INTRA.SOLV.lig_0>
-5.95779

>  <SCORE.INTRA.VDW>
0.107218

>  <SCORE.INTRA.VDW.0>
3.81702

>  <SCORE.INTRA.norm>
0.0730414

>  <SCORE.RESTR>
0

>  <SCORE.RESTR.CAVITY>
0

>  <SCORE.RESTR.norm>
0

>  <SCORE.SYSTEM>
0

>  <SCORE.SYSTEM.CONST>
0

>  <SCORE.SYSTEM.DIHEDRAL>
0

>  <SCORE.SYSTEM.SOLV>
0

>  <SCORE.SYSTEM.norm>
0

>  <SCORE.heavy>
25

>  <SCORE.norm>
-1.94248

>  <RMSD>
1.868

$$$$
1q8n_lig
 OpenBabel11021811413D
libRbt.so/2013.1/901 2013/11/27
 25 27  0  0  0  0  0  0  0  0999 V2000
    0.8400    0.6508   -0.6178 C   0  0  0  0  0  0  0  0  0  0  0  0
    0.8560    2.0104   -1.5215 C   0  0  0  0  0  0  0  0  0  0  0  0
   -0.8855    1.0374    5.0651 N   0  0  0  0  0  0  0  0  0  0  0  0
    0.6912    3.2523   -1.0063 C   0  0  0  0  0  0  0  0  0  0  0  0
    2.5678   -4.5379   -3.0683 N   0  0  0  0  0  0  0  0  0  0  0  0
    0.7067    4.4607   -1.8628 C   0  0  0  0  0  0  0  0  0  0  0  0
    0.8910    4.3356   -3.1971 C   0  0  0  0  0  0  0  0  0  0  0  0
    1.0754    3.0210   -3.7662 C   0  0  0  0  0  0  0  0  0  0  0  0
    1.0575    1.9391   -2.9838 C   0  0  0  0  0  0  0  0  0  0  0  0
    0.3655    0.7618    0.9387 C   0  0  0  0  0  0  0  0  0  0  0  0
   -0.4508    1.7534    1.3520 C   0  0  0  0  0  0  0  0  0  0  0  0
   -0.8941    1.8704    2.7690 C   0  0  0  0  0  0  0  0  0  0  0  0
   -0.4804    0.9620    3.6926 C   0  0  0  0  0  0  0  0  0  0  0  0
    0.4105   -0.1292    3.2550 C   0  0  0  0  0  0  0  0  0  0  0  0
    0.8014   -0.2185    1.9761 C   0  0  0  0  0  0  0  0  0  0  0  0
    1.2911   -0.8172   -1.2423 C   0  0  0  0  0  0  0  0  0  0  0  0
    1.8188   -0.9011   -2.6481 C   0  0  0  0  0  0  0  0  0  0  0  0
    2.2080   -2.0502   -3.2070 C   0  0  0  0  0  0  0  0  0  0  0  0
    2.1374   -3.3128   -2.4623 C   0  0  0  0  0  0  0  0  0  0  0  0
    1.6653   -3.2941   -1.1985 C   0  0  0  0  0  0  0  0  0  0  0  0
    1.2264   -2.0082   -0.5592 C   0  0  0  0  0  0  0  0  0  0  0  0
   -1.4604    2.2211    5.6280 C   0  0  0  0  0  0  0  0  0  0  0  0
   -0.7229   -0.0932    5.9258 C   0  0  0  0  0  0  0  0  0  0  0  0
    3.5453   -4.5233   -4.1183 C   0  0  0  0  0  0  0  0  0  0  0  0
    2.0393   -5.8132   -2.6395 C   0  0  0  0  0  0  0  0  0  0  0  0
  1  2  1  0  0  0  0
  1 10  1  0  0  0  0
  1 16  1  0  0  0  0
  2  4  2  0  0  0  0
  2  9  1  0  0  0  0
  4  6  1  0  0  0  0
  6  7  2  0  0  0  0
  7  8  1  0  0  0  0
  8  9  2  0  0  0  0
 10 11  2  0  0  0  0
 10 15  1  0  0  0  0
 11 12  1  0  0  0  0
 12 13  2  0  0  0  0
 13  3  1  0  0  0  0
 13 14  1  0  0  0  0
 14 15  2  0  0  0  0
 16 17  2  0  0  0  0
 16 21  1  0  0  0  0
 17 18  1  0  0  0  0
 18 19  2  0  0  0  0
 19  5  1  0  0  0  0
 19 20  1  0  0  0  0
 20 21  2  0  0  0  0
 22  3  1  0  0  0  0
 23  3  1  0  0  0  0
 24  5  1  0  0  0  0
 25  5  1  0  0  0  0
M  END
>  <CHROM.1>
10.21150230,24.96360483,4.18742159,-15.88019872,25.95061946,0.85219456,-0.03659470
-0.17950530,3.13907668,-1.23122165,2.54408478

>  <Name>
1q8n_lig

>  <RI>
0

>  <Rbt.Current_Directory>
/home/itssahil/PROJECTS/Mol_Feturizer/New_Systems/rnas/1q8n

>  <Rbt.Executable>
rbdock ($Id: //depot/dev/client3/rdock/2013.1/src/exe/rbdock.cxx#4 $)

>  <Rbt.Library>
libRbt.so (2013.1, Build901 2013/11/27)

>  <Rbt.Parameter_File>
/export/apps/rDock/src/rDock_2013.1_src/data/scripts/dock_solv.prm

>  <Rbt.Receptor>
prm/pocket_docking_6.prm

>  <SCORE>
-48.5993

>  <SCORE.INTER>
-50.2625

>  <SCORE.INTER.CONST>
1

>  <SCORE.INTER.POLAR>
0

>  <SCORE.INTER.ROT>
5

>  <SCORE.INTER.SOLV>
9.35011

>  <SCORE.INTER.VDW>
-43.5584

>  <SCORE.INTER.norm>
-2.0105

>  <SCORE.INTRA>
1.66317

>  <SCORE.INTRA.DIHEDRAL>
3.40352

>  <SCORE.INTRA.DIHEDRAL.0>
2.1627

>  <SCORE.INTRA.POLAR>
0

>  <SCORE.INTRA.POLAR.0>
0

>  <SCORE.INTRA.REPUL>
0

>  <SCORE.INTRA.REPUL.0>
0

>  <SCORE.INTRA.SOLV>
0.0648568

>  <SCORE.INTRA.SOLV.lig_0>
-5.95779

>  <SCORE.INTRA.VDW>
-0.0710132

>  <SCORE.INTRA.VDW.0>
3.81702

>  <SCORE.INTRA.norm>
0.0665269

>  <SCORE.RESTR>
0

>  <SCORE.RESTR.CAVITY>
0

>  <SCORE.RESTR.norm>
0

>  <SCORE.SYSTEM>
0

>  <SCORE.SYSTEM.CONST>
0

>  <SCORE.SYSTEM.DIHEDRAL>
0

>  <SCORE.SYSTEM.SOLV>
0

>  <SCORE.SYSTEM.norm>
0

>  <SCORE.heavy>
25

>  <SCORE.norm>
-1.94397

>  <RMSD>
1.869

$$$$
1q8n_lig
 OpenBabel11021811403D
libRbt.so/2013.1/901 2013/11/27
 25 27  0  0  0  0  0  0  0  0999 V2000
    0.9631    0.5918   -0.8899 C   0  0  0  0  0  0  0  0  0  0  0  0
    0.9501    1.9864   -1.7388 C   0  0  0  0  0  0  0  0  0  0  0  0
   -0.7935    0.7101    4.7953 N   0  0  0  0  0  0  0  0  0  0  0  0
    1.1530    2.0490   -3.0766 C   0  0  0  0  0  0  0  0  0  0  0  0
    2.6132   -4.6999   -3.1676 N   0  0  0  0  0  0  0  0  0  0  0  0
    1.1389    3.3367   -3.8085 C   0  0  0  0  0  0  0  0  0  0  0  0
    0.9170    4.4890   -3.1355 C   0  0  0  0  0  0  0  0  0  0  0  0
    0.6915    4.4442   -1.7097 C   0  0  0  0  0  0  0  0  0  0  0  0
    0.7086    3.2772   -1.0609 C   0  0  0  0  0  0  0  0  0  0  0  0
    0.4803    0.6294    0.6675 C   0  0  0  0  0  0  0  0  0  0  0  0
   -0.2893    1.6332    1.1371 C   0  0  0  0  0  0  0  0  0  0  0  0
   -0.7394    1.6838    2.5559 C   0  0  0  0  0  0  0  0  0  0  0  0
   -0.3801    0.7000    3.4232 C   0  0  0  0  0  0  0  0  0  0  0  0
    0.4595   -0.4052    2.9237 C   0  0  0  0  0  0  0  0  0  0  0  0
    0.8573   -0.4343    1.6440 C   0  0  0  0  0  0  0  0  0  0  0  0
    1.4515   -0.8390   -1.5702 C   0  0  0  0  0  0  0  0  0  0  0  0
    1.2587   -2.1278   -0.8195 C   0  0  0  0  0  0  0  0  0  0  0  0
    1.6210   -3.3143   -1.3148 C   0  0  0  0  0  0  0  0  0  0  0  0
    2.2384   -3.4206   -2.6419 C   0  0  0  0  0  0  0  0  0  0  0  0
    2.4397   -2.2931   -3.3552 C   0  0  0  0  0  0  0  0  0  0  0  0
    2.0351   -0.9540   -2.8094 C   0  0  0  0  0  0  0  0  0  0  0  0
   -0.8031   -0.4743    5.5989 C   0  0  0  0  0  0  0  0  0  0  0  0
   -1.2152    1.9305    5.4102 C   0  0  0  0  0  0  0  0  0  0  0  0
    3.5855   -4.7955   -4.2183 C   0  0  0  0  0  0  0  0  0  0  0  0
    2.0329   -5.9207   -2.6557 C   0  0  0  0  0  0  0  0  0  0  0  0
  1  2  1  0  0  0  0
  1 10  1  0  0  0  0
  1 16  1  0  0  0  0
  2  4  2  0  0  0  0
  2  9  1  0  0  0  0
  4  6  1  0  0  0  0
  6  7  2  0  0  0  0
  7  8  1  0  0  0  0
  8  9  2  0  0  0  0
 10 11  2  0  0  0  0
 10 15  1  0  0  0  0
 11 12  1  0  0  0  0
 12 13  2  0  0  0  0
 13  3  1  0  0  0  0
 13 14  1  0  0  0  0
 14 15  2  0  0  0  0
 16 17  2  0  0  0  0
 16 21  1  0  0  0  0
 17 18  1  0  0  0  0
 18 19  2  0  0  0  0
 19  5  1  0  0  0  0
 19 20  1  0  0  0  0
 20 21  2  0  0  0  0
 22  3  1  0  0  0  0
 23  3  1  0  0  0  0
 24  5  1  0  0  0  0
 25  5  1  0  0  0  0
M  END
>  <CHROM.1>
-170.74504044,20.53156649,-171.08702098,159.59457464,-159.34582913,0.93377711
-0.15289421,-0.35096169,-3.04732317,-1.22559017,2.60017580

>  <Name>
1q8n_lig

>  <RI>
0

>  <Rbt.Current_Directory>
/home/itssahil/PROJECTS/Mol_Feturizer/New_Systems/rnas/1q8n

>  <Rbt.Executable>
rbdock ($Id: //depot/dev/client3/rdock/2013.1/src/exe/rbdock.cxx#4 $)

>  <Rbt.Library>
libRbt.so (2013.1, Build901 2013/11/27)

>  <Rbt.Parameter_File>
/export/apps/rDock/src/rDock_2013.1_src/data/scripts/dock_solv.prm

>  <Rbt.Receptor>
prm/blind_docking_20.prm

>  <SCORE>
-49.0664

>  <SCORE.INTER>
-50.8656

>  <SCORE.INTER.CONST>
1

>  <SCORE.INTER.POLAR>
0

>  <SCORE.INTER.ROT>
5

>  <SCORE.INTER.SOLV>
9.64081

>  <SCORE.INTER.VDW>
-44.0573

>  <SCORE.INTER.norm>
-2.03462

>  <SCORE.INTRA>
1.79925

>  <SCORE.INTRA.DIHEDRAL>
3.14392

>  <SCORE.INTRA.DIHEDRAL.0>
2.1627

>  <SCORE.INTRA.POLAR>
0

>  <SCORE.INTRA.POLAR.0>
0

>  <SCORE.INTRA.REPUL>
0

>  <SCORE.INTRA.REPUL.0>
0

>  <SCORE.INTRA.SOLV>
0.0670007

>  <SCORE.INTRA.SOLV.lig_0>
-5.95779

>  <SCORE.INTRA.VDW>
0.193784

>  <SCORE.INTRA.VDW.0>
3.81702

>  <SCORE.INTRA.norm>
0.0719699

>  <SCORE.RESTR>
0

>  <SCORE.RESTR.CAVITY>
0

>  <SCORE.RESTR.norm>
0

>  <SCORE.SYSTEM>
0

>  <SCORE.SYSTEM.CONST>
0

>  <SCORE.SYSTEM.DIHEDRAL>
0

>  <SCORE.SYSTEM.SOLV>
0

>  <SCORE.SYSTEM.norm>
0

>  <SCORE.heavy>
25

>  <SCORE.norm>
-1.96265

>  <RMSD>
1.875

$$$$
1q8n_lig
 OpenBabel11021811403D
libRbt.so/2013.1/901 2013/11/27
 25 27  0  0  0  0  0  0  0  0999 V2000
    0.8470    0.5302   -0.6680 C   0  0  0  0  0  0  0  0  0  0  0  0
    0.8142    1.8719   -1.5978 C   0  0  0  0  0  0  0  0  0  0  0  0
    2.6532   -4.5827   -3.1210 N   0  0  0  0  0  0  0  0  0  0  0  0
    0.8086    3.1297   -1.0951 C   0  0  0  0  0  0  0  0  0  0  0  0
   -0.9462    0.8344    5.0421 N   0  0  0  0  0  0  0  0  0  0  0  0
    0.7726    4.3212   -1.9742 C   0  0  0  0  0  0  0  0  0  0  0  0
    0.7460    4.1638   -3.3176 C   0  0  0  0  0  0  0  0  0  0  0  0
    0.7583    2.8314   -3.8747 C   0  0  0  0  0  0  0  0  0  0  0  0
    0.7888    1.7651   -3.0715 C   0  0  0  0  0  0  0  0  0  0  0  0
    1.3422   -0.8685   -1.3451 C   0  0  0  0  0  0  0  0  0  0  0  0
    1.8927   -0.8930   -2.5766 C   0  0  0  0  0  0  0  0  0  0  0  0
    2.3504   -2.1606   -3.2103 C   0  0  0  0  0  0  0  0  0  0  0  0
    2.2236   -3.3414   -2.5479 C   0  0  0  0  0  0  0  0  0  0  0  0
    1.6256   -3.3302   -1.1995 C   0  0  0  0  0  0  0  0  0  0  0  0
    1.2172   -2.1804   -0.6447 C   0  0  0  0  0  0  0  0  0  0  0  0
    0.3922    0.5622    0.9260 C   0  0  0  0  0  0  0  0  0  0  0  0
   -0.4392    1.7036    1.4433 C   0  0  0  0  0  0  0  0  0  0  0  0
   -0.8465    1.7844    2.7129 C   0  0  0  0  0  0  0  0  0  0  0  0
   -0.4947    0.7429    3.6852 C   0  0  0  0  0  0  0  0  0  0  0  0
    0.2553   -0.3007    3.2741 C   0  0  0  0  0  0  0  0  0  0  0  0
    0.7176   -0.4029    1.8491 C   0  0  0  0  0  0  0  0  0  0  0  0
    3.6392   -4.6452   -4.1566 C   0  0  0  0  0  0  0  0  0  0  0  0
    2.0962   -5.8173   -2.6620 C   0  0  0  0  0  0  0  0  0  0  0  0
   -1.3591    2.0964    5.5854 C   0  0  0  0  0  0  0  0  0  0  0  0
   -1.0043   -0.3322    5.8937 C   0  0  0  0  0  0  0  0  0  0  0  0
  1  2  1  0  0  0  0
  1 10  1  0  0  0  0
  1 16  1  0  0  0  0
  2  4  2  0  0  0  0
  2  9  1  0  0  0  0
  4  6  1  0  0  0  0
  6  7  2  0  0  0  0
  7  8  1  0  0  0  0
  8  9  2  0  0  0  0
 10 11  2  0  0  0  0
 10 15  1  0  0  0  0
 11 12  1  0  0  0  0
 12 13  2  0  0  0  0
 13  3  1  0  0  0  0
 13 14  1  0  0  0  0
 14 15  2  0  0  0  0
 16 17  2  0  0  0  0
 16 21  1  0  0  0  0
 17 18  1  0  0  0  0
 18 19  2  0  0  0  0
 19  5  1  0  0  0  0
 19 20  1  0  0  0  0
 20 21  2  0  0  0  0
 22  3  1  0  0  0  0
 23  3  1  0  0  0  0
 24  5  1  0  0  0  0
 25  5  1  0  0  0  0
M  END
>  <CHROM.1>
-160.00221467,9.41050228,18.33807660,22.83055103,-20.17770925,0.83405304
-0.16030973,-0.22515517,0.06234459,1.21883330,-0.63496006

>  <Name>
1q8n_lig

>  <RI>
0

>  <Rbt.Current_Directory>
/home/itssahil/PROJECTS/Mol_Feturizer/New_Systems/rnas/1q8n

>  <Rbt.Executable>
rbdock ($Id: //depot/dev/client3/rdock/2013.1/src/exe/rbdock.cxx#4 $)

>  <Rbt.Library>
libRbt.so (2013.1, Build901 2013/11/27)

>  <Rbt.Parameter_File>
/export/apps/rDock/src/rDock_2013.1_src/data/scripts/dock_solv.prm

>  <Rbt.Receptor>
prm/blind_docking_60.prm

>  <SCORE>
-48.1388

>  <SCORE.INTER>
-49.7268

>  <SCORE.INTER.CONST>
1

>  <SCORE.INTER.POLAR>
0

>  <SCORE.INTER.ROT>
5

>  <SCORE.INTER.SOLV>
8.99773

>  <SCORE.INTER.VDW>
-43.0838

>  <SCORE.INTER.norm>
-1.98907

>  <SCORE.INTRA>
1.58805

>  <SCORE.INTRA.DIHEDRAL>
3.4477

>  <SCORE.INTRA.DIHEDRAL.0>
2.1627

>  <SCORE.INTRA.POLAR>
0

>  <SCORE.INTRA.POLAR.0>
0

>  <SCORE.INTRA.REPUL>
0

>  <SCORE.INTRA.REPUL.0>
0

>  <SCORE.INTRA.SOLV>
0.0621967

>  <SCORE.INTRA.SOLV.lig_0>
-5.95779

>  <SCORE.INTRA.VDW>
-0.166897

>  <SCORE.INTRA.VDW.0>
3.81702

>  <SCORE.INTRA.norm>
0.063522

>  <SCORE.RESTR>
0

>  <SCORE.RESTR.CAVITY>
0

>  <SCORE.RESTR.norm>
0

>  <SCORE.SYSTEM>
0

>  <SCORE.SYSTEM.CONST>
0

>  <SCORE.SYSTEM.DIHEDRAL>
0

>  <SCORE.SYSTEM.SOLV>
0

>  <SCORE.SYSTEM.norm>
0

>  <SCORE.heavy>
25

>  <SCORE.norm>
-1.92555

>  <RMSD>
1.875

$$$$
1q8n_lig
 OpenBabel11021811403D
libRbt.so/2013.1/901 2013/11/27
 25 27  0  0  0  0  0  0  0  0999 V2000
    0.9631    0.6699   -0.7777 C   0  0  0  0  0  0  0  0  0  0  0  0
    0.9491    2.0748   -1.6092 C   0  0  0  0  0  0  0  0  0  0  0  0
   -0.8038    0.7545    4.9050 N   0  0  0  0  0  0  0  0  0  0  0  0
    0.7332    3.2819   -1.0337 C   0  0  0  0  0  0  0  0  0  0  0  0
    2.6274   -4.5918   -3.1137 N   0  0  0  0  0  0  0  0  0  0  0  0
    0.7230    4.5334   -1.8259 C   0  0  0  0  0  0  0  0  0  0  0  0
    0.9350    4.4846   -3.1611 C   0  0  0  0  0  0  0  0  0  0  0  0
    1.1739    3.2085   -3.7939 C   0  0  0  0  0  0  0  0  0  0  0  0
    1.1788    2.0870   -3.0690 C   0  0  0  0  0  0  0  0  0  0  0  0
    0.4805    0.6880    0.7802 C   0  0  0  0  0  0  0  0  0  0  0  0
    0.8798   -0.2656    1.6472 C   0  0  0  0  0  0  0  0  0  0  0  0
    0.4491   -0.2650    3.0728 C   0  0  0  0  0  0  0  0  0  0  0  0
   -0.3682    0.7162    3.5403 C   0  0  0  0  0  0  0  0  0  0  0  0
   -0.8113    1.7670    2.6046 C   0  0  0  0  0  0  0  0  0  0  0  0
   -0.4157    1.7502    1.3240 C   0  0  0  0  0  0  0  0  0  0  0  0
    1.4522   -0.7521   -1.4757 C   0  0  0  0  0  0  0  0  0  0  0  0
    1.3250   -2.0418   -0.7127 C   0  0  0  0  0  0  0  0  0  0  0  0
    1.6912   -3.2217   -1.2206 C   0  0  0  0  0  0  0  0  0  0  0  0
    2.2479   -3.3194   -2.5750 C   0  0  0  0  0  0  0  0  0  0  0  0
    2.3891   -2.1906   -3.3005 C   0  0  0  0  0  0  0  0  0  0  0  0
    1.9795   -0.8588   -2.7406 C   0  0  0  0  0  0  0  0  0  0  0  0
   -0.7826   -0.4031    5.7464 C   0  0  0  0  0  0  0  0  0  0  0  0
   -1.2802    1.9773    5.4735 C   0  0  0  0  0  0  0  0  0  0  0  0
    3.5943   -4.6727   -4.1706 C   0  0  0  0  0  0  0  0  0  0  0  0
    2.0571   -5.8205   -2.6090 C   0  0  0  0  0  0  0  0  0  0  0  0
  1  2  1  0  0  0  0
  1 10  1  0  0  0  0
  1 16  1  0  0  0  0
  2  4  2  0  0  0  0
  2  9  1  0  0  0  0
  4  6  1  0  0  0  0
  6  7  2  0  0  0  0
  7  8  1  0  0  0  0
  8  9  2  0  0  0  0
 10 11  2  0  0  0  0
 10 15  1  0  0  0  0
 11 12  1  0  0  0  0
 12 13  2  0  0  0  0
 13  3  1  0  0  0  0
 13 14  1  0  0  0  0
 14 15  2  0  0  0  0
 16 17  2  0  0  0  0
 16 21  1  0  0  0  0
 17 18  1  0  0  0  0
 18 19  2  0  0  0  0
 19  5  1  0  0  0  0
 19 20  1  0  0  0  0
 20 21  2  0  0  0  0
 22  3  1  0  0  0  0
 23  3  1  0  0  0  0
 24  5  1  0  0  0  0
 25  5  1  0  0  0  0
M  END
>  <CHROM.1>
9.23449673,-156.83078046,-174.20983793,-20.29803713,-156.67774752,0.93337594
-0.08022447,-0.28237188,-3.09133340,-1.22277639,2.58573480

>  <Name>
1q8n_lig

>  <RI>
0

>  <Rbt.Current_Directory>
/home/itssahil/PROJECTS/Mol_Feturizer/New_Systems/rnas/1q8n

>  <Rbt.Executable>
rbdock ($Id: //depot/dev/client3/rdock/2013.1/src/exe/rbdock.cxx#4 $)

>  <Rbt.Library>
libRbt.so (2013.1, Build901 2013/11/27)

>  <Rbt.Parameter_File>
/export/apps/rDock/src/rDock_2013.1_src/data/scripts/dock_solv.prm

>  <Rbt.Receptor>
prm/pocket_docking_5.prm

>  <SCORE>
-48.6613

>  <SCORE.INTER>
-50.3621

>  <SCORE.INTER.CONST>
1

>  <SCORE.INTER.POLAR>
0

>  <SCORE.INTER.ROT>
5

>  <SCORE.INTER.SOLV>
9.67663

>  <SCORE.INTER.VDW>
-43.7336

>  <SCORE.INTER.norm>
-2.01448

>  <SCORE.INTRA>
1.70081

>  <SCORE.INTRA.DIHEDRAL>
3.54329

>  <SCORE.INTRA.DIHEDRAL.0>
2.1627

>  <SCORE.INTRA.POLAR>
0

>  <SCORE.INTRA.POLAR.0>
0

>  <SCORE.INTRA.REPUL>
0

>  <SCORE.INTRA.REPUL.0>
0

>  <SCORE.INTRA.SOLV>
0.0656223

>  <SCORE.INTRA.SOLV.lig_0>
-5.95779

>  <SCORE.INTRA.VDW>
-0.103645

>  <SCORE.INTRA.VDW.0>
3.81702

>  <SCORE.INTRA.norm>
0.0680324

>  <SCORE.RESTR>
0

>  <SCORE.RESTR.CAVITY>
0

>  <SCORE.RESTR.norm>
0

>  <SCORE.SYSTEM>
0

>  <SCORE.SYSTEM.CONST>
0

>  <SCORE.SYSTEM.DIHEDRAL>
0

>  <SCORE.SYSTEM.SOLV>
0

>  <SCORE.SYSTEM.norm>
0

>  <SCORE.heavy>
25

>  <SCORE.norm>
-1.94645

>  <RMSD>
1.875

$$$$
1q8n_lig
 OpenBabel11021811413D
libRbt.so/2013.1/901 2013/11/27
 25 27  0  0  0  0  0  0  0  0999 V2000
    0.9561    0.6842   -0.7630 C   0  0  0  0  0  0  0  0  0  0  0  0
    0.9470    2.0890   -1.5950 C   0  0  0  0  0  0  0  0  0  0  0  0
   -0.8426    0.7706    4.9097 N   0  0  0  0  0  0  0  0  0  0  0  0
    0.7040    3.2936   -1.0252 C   0  0  0  0  0  0  0  0  0  0  0  0
    2.6327   -4.5783   -3.0883 N   0  0  0  0  0  0  0  0  0  0  0  0
    0.6994    4.5449   -1.8177 C   0  0  0  0  0  0  0  0  0  0  0  0
    0.9444    4.4984   -3.1473 C   0  0  0  0  0  0  0  0  0  0  0  0
    1.2126    3.2250   -3.7738 C   0  0  0  0  0  0  0  0  0  0  0  0
    1.2121    2.1037   -3.0488 C   0  0  0  0  0  0  0  0  0  0  0  0
    0.4648    0.7028    0.7921 C   0  0  0  0  0  0  0  0  0  0  0  0
    0.8538   -0.2543    1.6600 C   0  0  0  0  0  0  0  0  0  0  0  0
    0.4151   -0.2532    3.0831 C   0  0  0  0  0  0  0  0  0  0  0  0
   -0.3994    0.7318    3.5474 C   0  0  0  0  0  0  0  0  0  0  0  0
   -0.8313    1.7864    2.6107 C   0  0  0  0  0  0  0  0  0  0  0  0
   -0.4285    1.7692    1.3324 C   0  0  0  0  0  0  0  0  0  0  0  0
    1.4489   -0.7381   -1.4579 C   0  0  0  0  0  0  0  0  0  0  0  0
    1.3174   -2.0275   -0.6952 C   0  0  0  0  0  0  0  0  0  0  0  0
    1.6863   -3.2076   -1.2008 C   0  0  0  0  0  0  0  0  0  0  0  0
    2.2504   -3.3057   -2.5521 C   0  0  0  0  0  0  0  0  0  0  0  0
    2.3956   -2.1771   -3.2772 C   0  0  0  0  0  0  0  0  0  0  0  0
    1.9831   -0.8452   -2.7199 C   0  0  0  0  0  0  0  0  0  0  0  0
   -0.8728   -0.3972    5.7366 C   0  0  0  0  0  0  0  0  0  0  0  0
   -1.2743    2.0042    5.4903 C   0  0  0  0  0  0  0  0  0  0  0  0
    3.5987   -4.6590   -4.1460 C   0  0  0  0  0  0  0  0  0  0  0  0
    2.0662   -5.8073   -2.5803 C   0  0  0  0  0  0  0  0  0  0  0  0
  1  2  1  0  0  0  0
  1 10  1  0  0  0  0
  1 16  1  0  0  0  0
  2  4  2  0  0  0  0
  2  9  1  0  0  0  0
  4  6  1  0  0  0  0
  6  7  2  0  0  0  0
  7  8  1  0  0  0  0
  8  9  2  0  0  0  0
 10 11  2  0  0  0  0
 10 15  1  0  0  0  0
 11 12  1  0  0  0  0
 12 13  2  0  0  0  0
 13  3  1  0  0  0  0
 13 14  1  0  0  0  0
 14 15  2  0  0  0  0
 16 17  2  0  0  0  0
 16 21  1  0  0  0  0
 17 18  1  0  0  0  0
 18 19  2  0  0  0  0
 19  5  1  0  0  0  0
 19 20  1  0  0  0  0
 20 21  2  0  0  0  0
 22  3  1  0  0  0  0
 23  3  1  0  0  0  0
 24  5  1  0  0  0  0
 25  5  1  0  0  0  0
M  END
>  <CHROM.1>
7.98681317,-157.15558175,-174.22008566,-22.34053567,-157.09564769,0.92401817
-0.06568207,-0.26760206,-3.07945781,-1.21796809,2.59704005

>  <Name>
1q8n_lig

>  <RI>
0

>  <Rbt.Current_Directory>
/home/itssahil/PROJECTS/Mol_Feturizer/New_Systems/rnas/1q8n

>  <Rbt.Executable>
rbdock ($Id: //depot/dev/client3/rdock/2013.1/src/exe/rbdock.cxx#4 $)

>  <Rbt.Library>
libRbt.so (2013.1, Build901 2013/11/27)

>  <Rbt.Parameter_File>
/export/apps/rDock/src/rDock_2013.1_src/data/scripts/dock_solv.prm

>  <Rbt.Receptor>
prm/pocket_docking_8.prm

>  <SCORE>
-48.5759

>  <SCORE.INTER>
-50.3573

>  <SCORE.INTER.CONST>
1

>  <SCORE.INTER.POLAR>
0

>  <SCORE.INTER.ROT>
5

>  <SCORE.INTER.SOLV>
9.71701

>  <SCORE.INTER.VDW>
-43.7439

>  <SCORE.INTER.norm>
-2.01429

>  <SCORE.INTRA>
1.78147

>  <SCORE.INTRA.DIHEDRAL>
3.78486

>  <SCORE.INTRA.DIHEDRAL.0>
2.1627

>  <SCORE.INTRA.POLAR>
0

>  <SCORE.INTRA.POLAR.0>
0

>  <SCORE.INTRA.REPUL>
0

>  <SCORE.INTRA.REPUL.0>
0

>  <SCORE.INTRA.SOLV>
0.0663509

>  <SCORE.INTRA.SOLV.lig_0>
-5.95779

>  <SCORE.INTRA.VDW>
-0.144135

>  <SCORE.INTRA.VDW.0>
3.81702

>  <SCORE.INTRA.norm>
0.0712589

>  <SCORE.RESTR>
0

>  <SCORE.RESTR.CAVITY>
0

>  <SCORE.RESTR.norm>
0

>  <SCORE.SYSTEM>
0

>  <SCORE.SYSTEM.CONST>
0

>  <SCORE.SYSTEM.DIHEDRAL>
0

>  <SCORE.SYSTEM.SOLV>
0

>  <SCORE.SYSTEM.norm>
0

>  <SCORE.heavy>
25

>  <SCORE.norm>
-1.94303

>  <RMSD>
1.875

$$$$
1q8n_lig
 OpenBabel11021811403D
libRbt.so/2013.1/901 2013/11/27
 25 27  0  0  0  0  0  0  0  0999 V2000
    0.9927    0.5796   -0.8941 C   0  0  0  0  0  0  0  0  0  0  0  0
    0.9676    1.9780   -1.7363 C   0  0  0  0  0  0  0  0  0  0  0  0
   -0.7890    0.6903    4.7834 N   0  0  0  0  0  0  0  0  0  0  0  0
    1.1590    2.0477   -3.0755 C   0  0  0  0  0  0  0  0  0  0  0  0
    2.6975   -4.6842   -3.1960 N   0  0  0  0  0  0  0  0  0  0  0  0
    1.1341    3.3387   -3.8011 C   0  0  0  0  0  0  0  0  0  0  0  0
    0.9139    4.4871   -3.1209 C   0  0  0  0  0  0  0  0  0  0  0  0
    0.7007    4.4347   -1.6934 C   0  0  0  0  0  0  0  0  0  0  0  0
    0.7274    3.2648   -1.0503 C   0  0  0  0  0  0  0  0  0  0  0  0
    0.5059    0.6048    0.6623 C   0  0  0  0  0  0  0  0  0  0  0  0
    0.8804   -0.3601    1.5279 C   0  0  0  0  0  0  0  0  0  0  0  0
    0.4455   -0.3532    2.9523 C   0  0  0  0  0  0  0  0  0  0  0  0
   -0.3502    0.6455    3.4199 C   0  0  0  0  0  0  0  0  0  0  0  0
   -0.7660    1.7087    2.4857 C   0  0  0  0  0  0  0  0  0  0  0  0
   -0.3670    1.6861    1.2063 C   0  0  0  0  0  0  0  0  0  0  0  0
    1.4971   -0.8430   -1.5802 C   0  0  0  0  0  0  0  0  0  0  0  0
    1.2932   -2.1400   -0.8469 C   0  0  0  0  0  0  0  0  0  0  0  0
    1.6675   -3.3204   -1.3477 C   0  0  0  0  0  0  0  0  0  0  0  0
    2.3100   -3.4114   -2.6640 C   0  0  0  0  0  0  0  0  0  0  0  0
    2.5220   -2.2760   -3.3614 C   0  0  0  0  0  0  0  0  0  0  0  0
    2.1041   -0.9436   -2.8093 C   0  0  0  0  0  0  0  0  0  0  0  0
   -1.2193    1.9042    5.4078 C   0  0  0  0  0  0  0  0  0  0  0  0
   -0.8095   -0.5028    5.5717 C   0  0  0  0  0  0  0  0  0  0  0  0
    2.0719   -5.8872   -2.7272 C   0  0  0  0  0  0  0  0  0  0  0  0
    3.7165   -4.7924   -4.2156 C   0  0  0  0  0  0  0  0  0  0  0  0
  1  2  1  0  0  0  0
  1 10  1  0  0  0  0
  1 16  1  0  0  0  0
  2  4  2  0  0  0  0
  2  9  1  0  0  0  0
  4  6  1  0  0  0  0
  6  7  2  0  0  0  0
  7  8  1  0  0  0  0
  8  9  2  0  0  0  0
 10 11  2  0  0  0  0
 10 15  1  0  0  0  0
 11 12  1  0  0  0  0
 12 13  2  0  0  0  0
 13  3  1  0  0  0  0
 13 14  1  0  0  0  0
 14 15  2  0  0  0  0
 16 17  2  0  0  0  0
 16 21  1  0  0  0  0
 17 18  1  0  0  0  0
 18 19  2  0  0  0  0
 19  5  1  0  0  0  0
 19 20  1  0  0  0  0
 20 21  2  0  0  0  0
 22  3  1  0  0  0  0
 23  3  1  0  0  0  0
 24  5  1  0  0  0  0
 25  5  1  0  0  0  0
M  END
>  <CHROM.1>
-170.01889469,-158.79173588,-169.99252989,158.22385299,22.35332267,0.95931717
-0.14987252,-0.36282276,-0.08687184,1.21699642,-0.54909607

>  <Name>
1q8n_lig

>  <RI>
0

>  <Rbt.Current_Directory>
/home/itssahil/PROJECTS/Mol_Feturizer/New_Systems/rnas/1q8n

>  <Rbt.Executable>
rbdock ($Id: //depot/dev/client3/rdock/2013.1/src/exe/rbdock.cxx#4 $)

>  <Rbt.Library>
libRbt.so (2013.1, Build901 2013/11/27)

>  <Rbt.Parameter_File>
/export/apps/rDock/src/rDock_2013.1_src/data/scripts/dock_solv.prm

>  <Rbt.Receptor>
prm/pocket_docking_5.prm

>  <SCORE>
-49.4954

>  <SCORE.INTER>
-51.1992

>  <SCORE.INTER.CONST>
1

>  <SCORE.INTER.POLAR>
0

>  <SCORE.INTER.ROT>
5

>  <SCORE.INTER.SOLV>
9.70533

>  <SCORE.INTER.VDW>
-44.3012

>  <SCORE.INTER.norm>
-2.04797

>  <SCORE.INTRA>
1.70375

>  <SCORE.INTRA.DIHEDRAL>
3.61004

>  <SCORE.INTRA.DIHEDRAL.0>
2.1627

>  <SCORE.INTRA.POLAR>
0

>  <SCORE.INTRA.POLAR.0>
0

>  <SCORE.INTRA.REPUL>
0

>  <SCORE.INTRA.REPUL.0>
0

>  <SCORE.INTRA.SOLV>
0.0657046

>  <SCORE.INTRA.SOLV.lig_0>
-5.95779

>  <SCORE.INTRA.VDW>
-0.134121

>  <SCORE.INTRA.VDW.0>
3.81702

>  <SCORE.INTRA.norm>
0.06815

>  <SCORE.RESTR>
0

>  <SCORE.RESTR.CAVITY>
0

>  <SCORE.RESTR.norm>
0

>  <SCORE.SYSTEM>
0

>  <SCORE.SYSTEM.CONST>
0

>  <SCORE.SYSTEM.DIHEDRAL>
0

>  <SCORE.SYSTEM.SOLV>
0

>  <SCORE.SYSTEM.norm>
0

>  <SCORE.heavy>
25

>  <SCORE.norm>
-1.97982

>  <RMSD>
1.876

$$$$
1q8n_lig
 OpenBabel11021811403D
libRbt.so/2013.1/901 2013/11/27
 25 27  0  0  0  0  0  0  0  0999 V2000
    0.9503    0.6606   -0.7702 C   0  0  0  0  0  0  0  0  0  0  0  0
    0.9341    2.0625   -1.6068 C   0  0  0  0  0  0  0  0  0  0  0  0
   -0.7916    0.7676    4.9197 N   0  0  0  0  0  0  0  0  0  0  0  0
    0.7330    3.2730   -1.0332 C   0  0  0  0  0  0  0  0  0  0  0  0
    2.5918   -4.6116   -3.0990 N   0  0  0  0  0  0  0  0  0  0  0  0
    0.7200    4.5215   -1.8299 C   0  0  0  0  0  0  0  0  0  0  0  0
    0.9145    4.4665   -3.1675 C   0  0  0  0  0  0  0  0  0  0  0  0
    1.1375    3.1866   -3.7985 C   0  0  0  0  0  0  0  0  0  0  0  0
    1.1450    2.0678   -3.0695 C   0  0  0  0  0  0  0  0  0  0  0  0
    0.4746    0.6848    0.7896 C   0  0  0  0  0  0  0  0  0  0  0  0
    0.8768   -0.2660    1.6583 C   0  0  0  0  0  0  0  0  0  0  0  0
    0.4524   -0.2598    3.0858 C   0  0  0  0  0  0  0  0  0  0  0  0
   -0.3620    0.7238    3.5533 C   0  0  0  0  0  0  0  0  0  0  0  0
   -0.8083    1.7716    2.6157 C   0  0  0  0  0  0  0  0  0  0  0  0
   -0.4182    1.7498    1.3335 C   0  0  0  0  0  0  0  0  0  0  0  0
    1.4351   -0.7645   -1.4652 C   0  0  0  0  0  0  0  0  0  0  0  0
    1.2667   -2.0571   -0.7152 C   0  0  0  0  0  0  0  0  0  0  0  0
    1.6273   -3.2393   -1.2217 C   0  0  0  0  0  0  0  0  0  0  0  0
    2.2185   -3.3368   -2.5614 C   0  0  0  0  0  0  0  0  0  0  0  0
    2.3973   -2.2056   -3.2747 C   0  0  0  0  0  0  0  0  0  0  0  0
    1.9943   -0.8712   -2.7163 C   0  0  0  0  0  0  0  0  0  0  0  0
   -1.2441    1.9756    5.5398 C   0  0  0  0  0  0  0  0  0  0  0  0
   -0.7799   -0.4207    5.7154 C   0  0  0  0  0  0  0  0  0  0  0  0
    2.0295   -5.8176   -2.5626 C   0  0  0  0  0  0  0  0  0  0  0  0
    3.5323   -4.7189   -4.1914 C   0  0  0  0  0  0  0  0  0  0  0  0
  1  2  1  0  0  0  0
  1 10  1  0  0  0  0
  1 16  1  0  0  0  0
  2  4  2  0  0  0  0
  2  9  1  0  0  0  0
  4  6  1  0  0  0  0
  6  7  2  0  0  0  0
  7  8  1  0  0  0  0
  8  9  2  0  0  0  0
 10 11  2  0  0  0  0
 10 15  1  0  0  0  0
 11 12  1  0  0  0  0
 12 13  2  0  0  0  0
 13  3  1  0  0  0  0
 13 14  1  0  0  0  0
 14 15  2  0  0  0  0
 16 17  2  0  0  0  0
 16 21  1  0  0  0  0
 17 18  1  0  0  0  0
 18 19  2  0  0  0  0
 19  5  1  0  0  0  0
 19 20  1  0  0  0  0
 20 21  2  0  0  0  0
 22  3  1  0  0  0  0
 23  3  1  0  0  0  0
 24  5  1  0  0  0  0
 25  5  1  0  0  0  0
M  END
>  <CHROM.1>
9.80348673,-156.82595248,-172.13143887,158.21232131,19.94493853,0.91976490
-0.09025683,-0.27327577,-3.09178914,-1.22795462,2.58382860

>  <Name>
1q8n_lig

>  <RI>
0

>  <Rbt.Current_Directory>
/home/itssahil/PROJECTS/Mol_Feturizer/New_Systems/rnas/1q8n

>  <Rbt.Executable>
rbdock ($Id: //depot/dev/client3/rdock/2013.1/src/exe/rbdock.cxx#4 $)

>  <Rbt.Library>
libRbt.so (2013.1, Build901 2013/11/27)

>  <Rbt.Parameter_File>
/export/apps/rDock/src/rDock_2013.1_src/data/scripts/dock_solv.prm

>  <Rbt.Receptor>
prm/pocket_docking_5.prm

>  <SCORE>
-48.7932

>  <SCORE.INTER>
-50.3599

>  <SCORE.INTER.CONST>
1

>  <SCORE.INTER.POLAR>
0

>  <SCORE.INTER.ROT>
5

>  <SCORE.INTER.SOLV>
9.62889

>  <SCORE.INTER.VDW>
-43.7162

>  <SCORE.INTER.norm>
-2.0144

>  <SCORE.INTRA>
1.56671

>  <SCORE.INTRA.DIHEDRAL>
3.24978

>  <SCORE.INTRA.DIHEDRAL.0>
2.1627

>  <SCORE.INTRA.POLAR>
0

>  <SCORE.INTRA.POLAR.0>
0

>  <SCORE.INTRA.REPUL>
0

>  <SCORE.INTRA.REPUL.0>
0

>  <SCORE.INTRA.SOLV>
0.064665

>  <SCORE.INTRA.SOLV.lig_0>
-5.95779

>  <SCORE.INTRA.VDW>
-0.0905103

>  <SCORE.INTRA.VDW.0>
3.81702

>  <SCORE.INTRA.norm>
0.0626684

>  <SCORE.RESTR>
0

>  <SCORE.RESTR.CAVITY>
0

>  <SCORE.RESTR.norm>
0

>  <SCORE.SYSTEM>
0

>  <SCORE.SYSTEM.CONST>
0

>  <SCORE.SYSTEM.DIHEDRAL>
0

>  <SCORE.SYSTEM.SOLV>
0

>  <SCORE.SYSTEM.norm>
0

>  <SCORE.heavy>
25

>  <SCORE.norm>
-1.95173

>  <RMSD>
1.877

$$$$
1q8n_lig
 OpenBabel11021811413D
libRbt.so/2013.1/901 2013/11/27
 25 27  0  0  0  0  0  0  0  0999 V2000
    0.9474    0.6682   -0.8058 C   0  0  0  0  0  0  0  0  0  0  0  0
    0.9394    2.0750   -1.6343 C   0  0  0  0  0  0  0  0  0  0  0  0
   -0.8669    0.6994    4.8625 N   0  0  0  0  0  0  0  0  0  0  0  0
    0.7317    3.2821   -1.0558 C   0  0  0  0  0  0  0  0  0  0  0  0
    2.6316   -4.5858   -3.1448 N   0  0  0  0  0  0  0  0  0  0  0  0
    0.7267    4.5352   -1.8454 C   0  0  0  0  0  0  0  0  0  0  0  0
    0.9354    4.4880   -3.1811 C   0  0  0  0  0  0  0  0  0  0  0  0
    1.1657    3.2120   -3.8171 C   0  0  0  0  0  0  0  0  0  0  0  0
    1.1659    2.0889   -3.0946 C   0  0  0  0  0  0  0  0  0  0  0  0
    0.4488    0.6820    0.7471 C   0  0  0  0  0  0  0  0  0  0  0  0
   -0.3247    1.6791    1.2245 C   0  0  0  0  0  0  0  0  0  0  0  0
   -0.7891    1.7080    2.6392 C   0  0  0  0  0  0  0  0  0  0  0  0
   -0.4395    0.7104    3.4947 C   0  0  0  0  0  0  0  0  0  0  0  0
    0.4041   -0.3878    2.9865 C   0  0  0  0  0  0  0  0  0  0  0  0
    0.8149   -0.3972    1.7107 C   0  0  0  0  0  0  0  0  0  0  0  0
    1.4462   -0.7514   -1.5018 C   0  0  0  0  0  0  0  0  0  0  0  0
    1.2376   -2.0527   -0.7775 C   0  0  0  0  0  0  0  0  0  0  0  0
    1.6072   -3.2311   -1.2866 C   0  0  0  0  0  0  0  0  0  0  0  0
    2.2490   -3.3153   -2.6037 C   0  0  0  0  0  0  0  0  0  0  0  0
    2.4652   -2.1759   -3.2933 C   0  0  0  0  0  0  0  0  0  0  0  0
    2.0525   -0.8457   -2.7318 C   0  0  0  0  0  0  0  0  0  0  0  0
   -0.9448   -0.5069    5.6288 C   0  0  0  0  0  0  0  0  0  0  0  0
   -1.2335    1.9202    5.5110 C   0  0  0  0  0  0  0  0  0  0  0  0
    2.0610   -5.7961   -2.6269 C   0  0  0  0  0  0  0  0  0  0  0  0
    3.5903   -4.6845   -4.2221 C   0  0  0  0  0  0  0  0  0  0  0  0
  1  2  1  0  0  0  0
  1 10  1  0  0  0  0
  1 16  1  0  0  0  0
  2  4  2  0  0  0  0
  2  9  1  0  0  0  0
  4  6  1  0  0  0  0
  6  7  2  0  0  0  0
  7  8  1  0  0  0  0
  8  9  2  0  0  0  0
 10 11  2  0  0  0  0
 10 15  1  0  0  0  0
 11 12  1  0  0  0  0
 12 13  2  0  0  0  0
 13  3  1  0  0  0  0
 13 14  1  0  0  0  0
 14 15  2  0  0  0  0
 16 17  2  0  0  0  0
 16 21  1  0  0  0  0
 17 18  1  0  0  0  0
 18 19  2  0  0  0  0
 19  5  1  0  0  0  0
 19 20  1  0  0  0  0
 20 21  2  0  0  0  0
 22  3  1  0  0  0  0
 23  3  1  0  0  0  0
 24  5  1  0  0  0  0
 25  5  1  0  0  0  0
M  END
>  <CHROM.1>
10.06830829,20.32849241,-170.52332904,156.62992729,18.52038265,0.91924616
-0.10377761,-0.31149610,-3.07636514,-1.21689046,2.61187717

>  <Name>
1q8n_lig

>  <RI>
0

>  <Rbt.Current_Directory>
/home/itssahil/PROJECTS/Mol_Feturizer/New_Systems/rnas/1q8n

>  <Rbt.Executable>
rbdock ($Id: //depot/dev/client3/rdock/2013.1/src/exe/rbdock.cxx#4 $)

>  <Rbt.Library>
libRbt.so (2013.1, Build901 2013/11/27)

>  <Rbt.Parameter_File>
/export/apps/rDock/src/rDock_2013.1_src/data/scripts/dock_solv.prm

>  <Rbt.Receptor>
prm/pocket_docking_7.prm

>  <SCORE>
-48.4989

>  <SCORE.INTER>
-50.1816

>  <SCORE.INTER.CONST>
1

>  <SCORE.INTER.POLAR>
0

>  <SCORE.INTER.ROT>
5

>  <SCORE.INTER.SOLV>
9.61572

>  <SCORE.INTER.VDW>
-43.5929

>  <SCORE.INTER.norm>
-2.00726

>  <SCORE.INTRA>
1.68269

>  <SCORE.INTRA.DIHEDRAL>
3.30091

>  <SCORE.INTRA.DIHEDRAL.0>
2.1627

>  <SCORE.INTRA.POLAR>
0

>  <SCORE.INTRA.POLAR.0>
0

>  <SCORE.INTRA.REPUL>
0

>  <SCORE.INTRA.REPUL.0>
0

>  <SCORE.INTRA.SOLV>
0.0663911

>  <SCORE.INTRA.SOLV.lig_0>
-5.95779

>  <SCORE.INTRA.VDW>
-0.000960272

>  <SCORE.INTRA.VDW.0>
3.81702

>  <SCORE.INTRA.norm>
0.0673076

>  <SCORE.RESTR>
0

>  <SCORE.RESTR.CAVITY>
0

>  <SCORE.RESTR.norm>
0

>  <SCORE.SYSTEM>
0

>  <SCORE.SYSTEM.CONST>
0

>  <SCORE.SYSTEM.DIHEDRAL>
0

>  <SCORE.SYSTEM.SOLV>
0

>  <SCORE.SYSTEM.norm>
0

>  <SCORE.heavy>
25

>  <SCORE.norm>
-1.93995

>  <RMSD>
1.878

$$$$
1q8n_lig
 OpenBabel11021811403D
libRbt.so/2013.1/901 2013/11/27
 25 27  0  0  0  0  0  0  0  0999 V2000
    0.9707    0.6112   -0.8742 C   0  0  0  0  0  0  0  0  0  0  0  0
    0.9652    2.0083   -1.7190 C   0  0  0  0  0  0  0  0  0  0  0  0
   -0.8040    0.7188    4.8056 N   0  0  0  0  0  0  0  0  0  0  0  0
    1.1767    2.0746   -3.0554 C   0  0  0  0  0  0  0  0  0  0  0  0
    2.6126   -4.6793   -3.1606 N   0  0  0  0  0  0  0  0  0  0  0  0
    1.1691    3.3644   -3.7835 C   0  0  0  0  0  0  0  0  0  0  0  0
    0.9447    4.5151   -3.1086 C   0  0  0  0  0  0  0  0  0  0  0  0
    0.7103    4.4664   -1.6843 C   0  0  0  0  0  0  0  0  0  0  0  0
    0.7215    3.2974   -1.0388 C   0  0  0  0  0  0  0  0  0  0  0  0
    0.4830    0.6459    0.6818 C   0  0  0  0  0  0  0  0  0  0  0  0
   -0.2866    1.6498    1.1512 C   0  0  0  0  0  0  0  0  0  0  0  0
   -0.7411    1.6977    2.5686 C   0  0  0  0  0  0  0  0  0  0  0  0
   -0.3862    0.7113    3.4348 C   0  0  0  0  0  0  0  0  0  0  0  0
    0.4532   -0.3941    2.9354 C   0  0  0  0  0  0  0  0  0  0  0  0
    0.8551   -0.4207    1.6569 C   0  0  0  0  0  0  0  0  0  0  0  0
    1.4565   -0.8193   -1.5572 C   0  0  0  0  0  0  0  0  0  0  0  0
    1.2694   -2.1081   -0.8051 C   0  0  0  0  0  0  0  0  0  0  0  0
    1.6300   -3.2944   -1.3022 C   0  0  0  0  0  0  0  0  0  0  0  0
    2.2397   -3.4003   -2.6329 C   0  0  0  0  0  0  0  0  0  0  0  0
    2.4356   -2.2728   -3.3476 C   0  0  0  0  0  0  0  0  0  0  0  0
    2.0329   -0.9339   -2.7997 C   0  0  0  0  0  0  0  0  0  0  0  0
   -0.8123   -0.4663    5.6080 C   0  0  0  0  0  0  0  0  0  0  0  0
   -1.2317    1.9373    5.4202 C   0  0  0  0  0  0  0  0  0  0  0  0
    3.6038   -4.7766   -4.1934 C   0  0  0  0  0  0  0  0  0  0  0  0
    2.0114   -5.8982   -2.6685 C   0  0  0  0  0  0  0  0  0  0  0  0
  1  2  1  0  0  0  0
  1 10  1  0  0  0  0
  1 16  1  0  0  0  0
  2  4  2  0  0  0  0
  2  9  1  0  0  0  0
  4  6  1  0  0  0  0
  6  7  2  0  0  0  0
  7  8  1  0  0  0  0
  8  9  2  0  0  0  0
 10 11  2  0  0  0  0
 10 15  1  0  0  0  0
 11 12  1  0  0  0  0
 12 13  2  0  0  0  0
 13  3  1  0  0  0  0
 13 14  1  0  0  0  0
 14 15  2  0  0  0  0
 16 17  2  0  0  0  0
 16 21  1  0  0  0  0
 17 18  1  0  0  0  0
 18 19  2  0  0  0  0
 19  5  1  0  0  0  0
 19 20  1  0  0  0  0
 20 21  2  0  0  0  0
 22  3  1  0  0  0  0
 23  3  1  0  0  0  0
 24  5  1  0  0  0  0
 25  5  1  0  0  0  0
M  END
>  <CHROM.1>
-170.94809776,20.63841684,-171.69460220,159.88552444,-157.74922161,0.93765491
-0.13495372,-0.33720978,-3.03515475,-1.22423082,2.61417871

>  <Name>
1q8n_lig

>  <RI>
0

>  <Rbt.Current_Directory>
/home/itssahil/PROJECTS/Mol_Feturizer/New_Systems/rnas/1q8n

>  <Rbt.Executable>
rbdock ($Id: //depot/dev/client3/rdock/2013.1/src/exe/rbdock.cxx#4 $)

>  <Rbt.Library>
libRbt.so (2013.1, Build901 2013/11/27)

>  <Rbt.Parameter_File>
/export/apps/rDock/src/rDock_2013.1_src/data/scripts/dock_solv.prm

>  <Rbt.Receptor>
prm/blind_docking_60.prm

>  <SCORE>
-49.0412

>  <SCORE.INTER>
-50.882

>  <SCORE.INTER.CONST>
1

>  <SCORE.INTER.POLAR>
0

>  <SCORE.INTER.ROT>
5

>  <SCORE.INTER.SOLV>
9.68782

>  <SCORE.INTER.VDW>
-44.0839

>  <SCORE.INTER.norm>
-2.03528

>  <SCORE.INTRA>
1.84083

>  <SCORE.INTRA.DIHEDRAL>
3.34436

>  <SCORE.INTRA.DIHEDRAL.0>
2.1627

>  <SCORE.INTRA.POLAR>
0

>  <SCORE.INTRA.POLAR.0>
0

>  <SCORE.INTRA.REPUL>
0

>  <SCORE.INTRA.REPUL.0>
0

>  <SCORE.INTRA.SOLV>
0.0672112

>  <SCORE.INTRA.SOLV.lig_0>
-5.95779

>  <SCORE.INTRA.VDW>
0.135041

>  <SCORE.INTRA.VDW.0>
3.81702

>  <SCORE.INTRA.norm>
0.0736331

>  <SCORE.RESTR>
0

>  <SCORE.RESTR.CAVITY>
0

>  <SCORE.RESTR.norm>
0

>  <SCORE.SYSTEM>
0

>  <SCORE.SYSTEM.CONST>
0

>  <SCORE.SYSTEM.DIHEDRAL>
0

>  <SCORE.SYSTEM.SOLV>
0

>  <SCORE.SYSTEM.norm>
0

>  <SCORE.heavy>
25

>  <SCORE.norm>
-1.96165

>  <RMSD>
1.880

$$$$
1q8n_lig
 OpenBabel11021811403D
libRbt.so/2013.1/901 2013/11/27
 25 27  0  0  0  0  0  0  0  0999 V2000
    0.9940    0.5928   -0.8991 C   0  0  0  0  0  0  0  0  0  0  0  0
    0.9690    1.9896   -1.7440 C   0  0  0  0  0  0  0  0  0  0  0  0
   -0.8008    0.6720    4.7748 N   0  0  0  0  0  0  0  0  0  0  0  0
    1.1787    2.0586   -3.0805 C   0  0  0  0  0  0  0  0  0  0  0  0
    2.7077   -4.6712   -3.1940 N   0  0  0  0  0  0  0  0  0  0  0  0
    1.1531    3.3482   -3.8087 C   0  0  0  0  0  0  0  0  0  0  0  0
    0.9135    4.4958   -3.1337 C   0  0  0  0  0  0  0  0  0  0  0  0
    0.6805    4.4440   -1.7093 C   0  0  0  0  0  0  0  0  0  0  0  0
    0.7081    3.2754   -1.0638 C   0  0  0  0  0  0  0  0  0  0  0  0
    0.5008    0.6197    0.6553 C   0  0  0  0  0  0  0  0  0  0  0  0
   -0.2735    1.6193    1.1261 C   0  0  0  0  0  0  0  0  0  0  0  0
   -0.7332    1.6602    2.5421 C   0  0  0  0  0  0  0  0  0  0  0  0
   -0.3782    0.6714    3.4055 C   0  0  0  0  0  0  0  0  0  0  0  0
    0.4664   -0.4294    2.9046 C   0  0  0  0  0  0  0  0  0  0  0  0
    0.8728   -0.4497    1.6275 C   0  0  0  0  0  0  0  0  0  0  0  0
    1.5048   -0.8298   -1.5804 C   0  0  0  0  0  0  0  0  0  0  0  0
    1.2217   -2.1342   -0.8876 C   0  0  0  0  0  0  0  0  0  0  0  0
    1.5970   -3.3148   -1.3874 C   0  0  0  0  0  0  0  0  0  0  0  0
    2.3195   -3.3986   -2.6620 C   0  0  0  0  0  0  0  0  0  0  0  0
    2.6043   -2.2566   -3.3217 C   0  0  0  0  0  0  0  0  0  0  0  0
    2.1862   -0.9238   -2.7704 C   0  0  0  0  0  0  0  0  0  0  0  0
   -0.7696   -0.5078    5.5844 C   0  0  0  0  0  0  0  0  0  0  0  0
   -1.2738    1.8781    5.3806 C   0  0  0  0  0  0  0  0  0  0  0  0
    2.0819   -5.8743   -2.7258 C   0  0  0  0  0  0  0  0  0  0  0  0
    3.7275   -4.7790   -4.2128 C   0  0  0  0  0  0  0  0  0  0  0  0
  1  2  1  0  0  0  0
  1 10  1  0  0  0  0
  1 16  1  0  0  0  0
  2  4  2  0  0  0  0
  2  9  1  0  0  0  0
  4  6  1  0  0  0  0
  6  7  2  0  0  0  0
  7  8  1  0  0  0  0
  8  9  2  0  0  0  0
 10 11  2  0  0  0  0
 10 15  1  0  0  0  0
 11 12  1  0  0  0  0
 12 13  2  0  0  0  0
 13  3  1  0  0  0  0
 13 14  1  0  0  0  0
 14 15  2  0  0  0  0
 16 17  2  0  0  0  0
 16 21  1  0  0  0  0
 17 18  1  0  0  0  0
 18 19  2  0  0  0  0
 19  5  1  0  0  0  0
 19 20  1  0  0  0  0
 20 21  2  0  0  0  0
 22  3  1  0  0  0  0
 23  3  1  0  0  0  0
 24  5  1  0  0  0  0
 25  5  1  0  0  0  0
M  END
>  <CHROM.1>
-170.69050238,19.86702663,-166.02582472,161.83816809,18.30354102,0.96538466
-0.15410925,-0.36588861,-3.05716031,-1.21432335,2.59560781

>  <Name>
1q8n_lig

>  <RI>
0

>  <Rbt.Current_Directory>
/home/itssahil/PROJECTS/Mol_Feturizer/New_Systems/rnas/1q8n

>  <Rbt.Executable>
rbdock ($Id: //depot/dev/client3/rdock/2013.1/src/exe/rbdock.cxx#4 $)

>  <Rbt.Library>
libRbt.so (2013.1, Build901 2013/11/27)

>  <Rbt.Parameter_File>
/export/apps/rDock/src/rDock_2013.1_src/data/scripts/dock_solv.prm

>  <Rbt.Receptor>
prm/pocket_docking_4.prm

>  <SCORE>
-49.0723

>  <SCORE.INTER>
-50.649

>  <SCORE.INTER.CONST>
1

>  <SCORE.INTER.POLAR>
0

>  <SCORE.INTER.ROT>
5

>  <SCORE.INTER.SOLV>
9.69067

>  <SCORE.INTER.VDW>
-43.9296

>  <SCORE.INTER.norm>
-2.02596

>  <SCORE.INTRA>
1.57674

>  <SCORE.INTRA.DIHEDRAL>
2.50198

>  <SCORE.INTRA.DIHEDRAL.0>
2.1627

>  <SCORE.INTRA.POLAR>
0

>  <SCORE.INTRA.POLAR.0>
0

>  <SCORE.INTRA.REPUL>
0

>  <SCORE.INTRA.REPUL.0>
0

>  <SCORE.INTRA.SOLV>
0.0651442

>  <SCORE.INTRA.SOLV.lig_0>
-5.95779

>  <SCORE.INTRA.VDW>
0.29318

>  <SCORE.INTRA.VDW.0>
3.81702

>  <SCORE.INTRA.norm>
0.0630697

>  <SCORE.RESTR>
0

>  <SCORE.RESTR.CAVITY>
0

>  <SCORE.RESTR.norm>
0

>  <SCORE.SYSTEM>
0

>  <SCORE.SYSTEM.CONST>
0

>  <SCORE.SYSTEM.DIHEDRAL>
0

>  <SCORE.SYSTEM.SOLV>
0

>  <SCORE.SYSTEM.norm>
0

>  <SCORE.heavy>
25

>  <SCORE.norm>
-1.96289

>  <RMSD>
1.880

$$$$
1q8n_lig
 OpenBabel11021811403D
libRbt.so/2013.1/901 2013/11/27
 25 27  0  0  0  0  0  0  0  0999 V2000
    0.7463    0.7819   -0.5893 C   0  0  0  0  0  0  0  0  0  0  0  0
    0.7999    2.1041   -1.5455 C   0  0  0  0  0  0  0  0  0  0  0  0
    2.3917   -4.4394   -2.9244 N   0  0  0  0  0  0  0  0  0  0  0  0
    0.7161    3.3713   -1.0742 C   0  0  0  0  0  0  0  0  0  0  0  0
   -0.8889    0.9158    5.1744 N   0  0  0  0  0  0  0  0  0  0  0  0
    0.7631    4.5444   -1.9773 C   0  0  0  0  0  0  0  0  0  0  0  0
    0.8944    4.3601   -3.3110 C   0  0  0  0  0  0  0  0  0  0  0  0
    0.9923    3.0174   -3.8340 C   0  0  0  0  0  0  0  0  0  0  0  0
    0.9468    1.9679   -3.0097 C   0  0  0  0  0  0  0  0  0  0  0  0
    1.1977   -0.6510   -1.2243 C   0  0  0  0  0  0  0  0  0  0  0  0
    1.2055   -1.7752   -0.4782 C   0  0  0  0  0  0  0  0  0  0  0  0
    1.6147   -3.0919   -1.0411 C   0  0  0  0  0  0  0  0  0  0  0  0
    1.9931   -3.1915   -2.3435 C   0  0  0  0  0  0  0  0  0  0  0  0
    1.9874   -1.9712   -3.1723 C   0  0  0  0  0  0  0  0  0  0  0  0
    1.6181   -0.7937   -2.6491 C   0  0  0  0  0  0  0  0  0  0  0  0
    0.2481    0.8668    0.9897 C   0  0  0  0  0  0  0  0  0  0  0  0
    0.7326   -0.1539    1.9822 C   0  0  0  0  0  0  0  0  0  0  0  0
    0.3771   -0.1362    3.2697 C   0  0  0  0  0  0  0  0  0  0  0  0
   -0.5228    0.9002    3.7891 C   0  0  0  0  0  0  0  0  0  0  0  0
   -0.9915    1.8371    2.9388 C   0  0  0  0  0  0  0  0  0  0  0  0
   -0.5975    1.8282    1.4898 C   0  0  0  0  0  0  0  0  0  0  0  0
    3.1475   -4.5103   -4.1377 C   0  0  0  0  0  0  0  0  0  0  0  0
    2.0376   -5.6723   -2.2922 C   0  0  0  0  0  0  0  0  0  0  0  0
   -1.4090    2.1111    5.7737 C   0  0  0  0  0  0  0  0  0  0  0  0
   -0.7521   -0.2630    5.9999 C   0  0  0  0  0  0  0  0  0  0  0  0
  1  2  1  0  0  0  0
  1 10  1  0  0  0  0
  1 16  1  0  0  0  0
  2  4  2  0  0  0  0
  2  9  1  0  0  0  0
  4  6  1  0  0  0  0
  6  7  2  0  0  0  0
  7  8  1  0  0  0  0
  8  9  2  0  0  0  0
 10 11  2  0  0  0  0
 10 15  1  0  0  0  0
 11 12  1  0  0  0  0
 12 13  2  0  0  0  0
 13  3  1  0  0  0  0
 13 14  1  0  0  0  0
 14 15  2  0  0  0  0
 16 17  2  0  0  0  0
 16 21  1  0  0  0  0
 17 18  1  0  0  0  0
 18 19  2  0  0  0  0
 19  5  1  0  0  0  0
 19 20  1  0  0  0  0
 20 21  2  0  0  0  0
 22  3  1  0  0  0  0
 23  3  1  0  0  0  0
 24  5  1  0  0  0  0
 25  5  1  0  0  0  0
M  END
>  <CHROM.1>
-166.09811675,178.45410597,-154.15841442,-161.39241443,160.77214442,0.76988519
0.01561625,-0.12498117,0.06095933,1.24238863,-0.60004888

>  <Name>
1q8n_lig

>  <RI>
0

>  <Rbt.Current_Directory>
/home/itssahil/PROJECTS/Mol_Feturizer/New_Systems/rnas/1q8n

>  <Rbt.Executable>
rbdock ($Id: //depot/dev/client3/rdock/2013.1/src/exe/rbdock.cxx#4 $)

>  <Rbt.Library>
libRbt.so (2013.1, Build901 2013/11/27)

>  <Rbt.Parameter_File>
/export/apps/rDock/src/rDock_2013.1_src/data/scripts/dock_solv.prm

>  <Rbt.Receptor>
prm/blind_docking_80.prm

>  <SCORE>
-46.567

>  <SCORE.INTER>
-48.5079

>  <SCORE.INTER.CONST>
1

>  <SCORE.INTER.POLAR>
0

>  <SCORE.INTER.ROT>
5

>  <SCORE.INTER.SOLV>
9.30457

>  <SCORE.INTER.VDW>
-42.3734

>  <SCORE.INTER.norm>
-1.94031

>  <SCORE.INTRA>
1.94082

>  <SCORE.INTRA.DIHEDRAL>
2.69211

>  <SCORE.INTRA.DIHEDRAL.0>
2.1627

>  <SCORE.INTRA.POLAR>
0

>  <SCORE.INTRA.POLAR.0>
0

>  <SCORE.INTRA.REPUL>
0

>  <SCORE.INTRA.REPUL.0>
0

>  <SCORE.INTRA.SOLV>
0.0645799

>  <SCORE.INTRA.SOLV.lig_0>
-5.95779

>  <SCORE.INTRA.VDW>
0.562481

>  <SCORE.INTRA.VDW.0>
3.81702

>  <SCORE.INTRA.norm>
0.077633

>  <SCORE.RESTR>
0

>  <SCORE.RESTR.CAVITY>
0

>  <SCORE.RESTR.norm>
0

>  <SCORE.SYSTEM>
0

>  <SCORE.SYSTEM.CONST>
0

>  <SCORE.SYSTEM.DIHEDRAL>
0

>  <SCORE.SYSTEM.SOLV>
0

>  <SCORE.SYSTEM.norm>
0

>  <SCORE.heavy>
25

>  <SCORE.norm>
-1.86268

>  <RMSD>
1.885

$$$$
1q8n_lig
 OpenBabel11021811403D
libRbt.so/2013.1/901 2013/11/27
 25 27  0  0  0  0  0  0  0  0999 V2000
    1.0363    0.5976   -0.9216 C   0  0  0  0  0  0  0  0  0  0  0  0
    0.9993    2.0018   -1.7535 C   0  0  0  0  0  0  0  0  0  0  0  0
   -0.7693    0.6471    4.7493 N   0  0  0  0  0  0  0  0  0  0  0  0
    1.1945    2.0833   -3.0915 C   0  0  0  0  0  0  0  0  0  0  0  0
    2.8054   -4.6301   -3.2571 N   0  0  0  0  0  0  0  0  0  0  0  0
    1.1584    3.3793   -3.8078 C   0  0  0  0  0  0  0  0  0  0  0  0
    0.9237    4.5203   -3.1200 C   0  0  0  0  0  0  0  0  0  0  0  0
    0.7062    4.4552   -1.6937 C   0  0  0  0  0  0  0  0  0  0  0  0
    0.7431    3.2809   -1.0590 C   0  0  0  0  0  0  0  0  0  0  0  0
    0.5428    0.6059    0.6330 C   0  0  0  0  0  0  0  0  0  0  0  0
    0.8734   -0.3934    1.4771 C   0  0  0  0  0  0  0  0  0  0  0  0
    0.4317   -0.4023    2.8993 C   0  0  0  0  0  0  0  0  0  0  0  0
   -0.3256    0.6165    3.3870 C   0  0  0  0  0  0  0  0  0  0  0  0
   -0.6931    1.7173    2.4765 C   0  0  0  0  0  0  0  0  0  0  0  0
   -0.2886    1.7087    1.1986 C   0  0  0  0  0  0  0  0  0  0  0  0
    1.5593   -0.8142   -1.6159 C   0  0  0  0  0  0  0  0  0  0  0  0
    1.3461   -2.1213   -0.9033 C   0  0  0  0  0  0  0  0  0  0  0  0
    1.7345   -3.2939   -1.4118 C   0  0  0  0  0  0  0  0  0  0  0  0
    2.4027   -3.3656   -2.7165 C   0  0  0  0  0  0  0  0  0  0  0  0
    2.6240   -2.2206   -3.3950 C   0  0  0  0  0  0  0  0  0  0  0  0
    2.1905   -0.8968   -2.8341 C   0  0  0  0  0  0  0  0  0  0  0  0
   -1.1917    1.8563    5.3881 C   0  0  0  0  0  0  0  0  0  0  0  0
   -0.8031   -0.5561    5.5216 C   0  0  0  0  0  0  0  0  0  0  0  0
    2.1191   -5.8320   -2.8793 C   0  0  0  0  0  0  0  0  0  0  0  0
    3.9007   -4.7305   -4.1951 C   0  0  0  0  0  0  0  0  0  0  0  0
  1  2  1  0  0  0  0
  1 10  1  0  0  0  0
  1 16  1  0  0  0  0
  2  4  2  0  0  0  0
  2  9  1  0  0  0  0
  4  6  1  0  0  0  0
  6  7  2  0  0  0  0
  7  8  1  0  0  0  0
  8  9  2  0  0  0  0
 10 11  2  0  0  0  0
 10 15  1  0  0  0  0
 11 12  1  0  0  0  0
 12 13  2  0  0  0  0
 13  3  1  0  0  0  0
 13 14  1  0  0  0  0
 14 15  2  0  0  0  0
 16 17  2  0  0  0  0
 16 21  1  0  0  0  0
 17 18  1  0  0  0  0
 18 19  2  0  0  0  0
 19  5  1  0  0  0  0
 19 20  1  0  0  0  0
 20 21  2  0  0  0  0
 22  3  1  0  0  0  0
 23  3  1  0  0  0  0
 24  5  1  0  0  0  0
 25  5  1  0  0  0  0
M  END
>  <CHROM.1>
-169.96760245,-161.88734063,-168.97121058,160.14552295,26.28917578,1.00838350
-0.13587751,-0.39622397,-3.06602742,-1.20816764,2.58899973

>  <Name>
1q8n_lig

>  <RI>
0

>  <Rbt.Current_Directory>
/home/itssahil/PROJECTS/Mol_Feturizer/New_Systems/rnas/1q8n

>  <Rbt.Executable>
rbdock ($Id: //depot/dev/client3/rdock/2013.1/src/exe/rbdock.cxx#4 $)

>  <Rbt.Library>
libRbt.so (2013.1, Build901 2013/11/27)

>  <Rbt.Parameter_File>
/export/apps/rDock/src/rDock_2013.1_src/data/scripts/dock_solv.prm

>  <Rbt.Receptor>
prm/blind_docking_100.prm

>  <SCORE>
-49.2335

>  <SCORE.INTER>
-51.1447

>  <SCORE.INTER.CONST>
1

>  <SCORE.INTER.POLAR>
0

>  <SCORE.INTER.ROT>
5

>  <SCORE.INTER.SOLV>
9.79618

>  <SCORE.INTER.VDW>
-44.2952

>  <SCORE.INTER.norm>
-2.04579

>  <SCORE.INTRA>
1.91116

>  <SCORE.INTRA.DIHEDRAL>
3.9842

>  <SCORE.INTRA.DIHEDRAL.0>
2.1627

>  <SCORE.INTRA.POLAR>
0

>  <SCORE.INTRA.POLAR.0>
0

>  <SCORE.INTRA.REPUL>
0

>  <SCORE.INTRA.REPUL.0>
0

>  <SCORE.INTRA.SOLV>
0.0675708

>  <SCORE.INTRA.SOLV.lig_0>
-5.95779

>  <SCORE.INTRA.VDW>
-0.114721

>  <SCORE.INTRA.VDW.0>
3.81702

>  <SCORE.INTRA.norm>
0.0764466

>  <SCORE.RESTR>
0

>  <SCORE.RESTR.CAVITY>
0

>  <SCORE.RESTR.norm>
0

>  <SCORE.SYSTEM>
0

>  <SCORE.SYSTEM.CONST>
0

>  <SCORE.SYSTEM.DIHEDRAL>
0

>  <SCORE.SYSTEM.SOLV>
0

>  <SCORE.SYSTEM.norm>
0

>  <SCORE.heavy>
25

>  <SCORE.norm>
-1.96934

>  <RMSD>
1.887

$$$$
1q8n_lig
 OpenBabel11021811403D
libRbt.so/2013.1/901 2013/11/27
 25 27  0  0  0  0  0  0  0  0999 V2000
    0.9820    0.5856   -0.9081 C   0  0  0  0  0  0  0  0  0  0  0  0
    0.9682    1.9849   -1.7490 C   0  0  0  0  0  0  0  0  0  0  0  0
   -0.7839    0.6689    4.7749 N   0  0  0  0  0  0  0  0  0  0  0  0
    1.1721    2.0554   -3.0863 C   0  0  0  0  0  0  0  0  0  0  0  0
    2.6522   -4.6902   -3.2080 N   0  0  0  0  0  0  0  0  0  0  0  0
    1.1571    3.3471   -3.8109 C   0  0  0  0  0  0  0  0  0  0  0  0
    0.9335    4.4954   -3.1317 C   0  0  0  0  0  0  0  0  0  0  0  0
    0.7070    4.4422   -1.7063 C   0  0  0  0  0  0  0  0  0  0  0  0
    0.7249    3.2716   -1.0640 C   0  0  0  0  0  0  0  0  0  0  0  0
    0.4967    0.6136    0.6488 C   0  0  0  0  0  0  0  0  0  0  0  0
   -0.2771    1.6124    1.1223 C   0  0  0  0  0  0  0  0  0  0  0  0
   -0.7295    1.6542    2.5405 C   0  0  0  0  0  0  0  0  0  0  0  0
   -0.3683    0.6673    3.4034 C   0  0  0  0  0  0  0  0  0  0  0  0
    0.4758   -0.4326    2.8996 C   0  0  0  0  0  0  0  0  0  0  0  0
    0.8757   -0.4538    1.6205 C   0  0  0  0  0  0  0  0  0  0  0  0
    1.4738   -0.8406   -1.5957 C   0  0  0  0  0  0  0  0  0  0  0  0
    1.3274   -2.1280   -0.8323 C   0  0  0  0  0  0  0  0  0  0  0  0
    1.6946   -3.3110   -1.3322 C   0  0  0  0  0  0  0  0  0  0  0  0
    2.2718   -3.4145   -2.6776 C   0  0  0  0  0  0  0  0  0  0  0  0
    2.4307   -2.2880   -3.4030 C   0  0  0  0  0  0  0  0  0  0  0  0
    2.0200   -0.9528   -2.8520 C   0  0  0  0  0  0  0  0  0  0  0  0
   -0.8054   -0.5224    5.5679 C   0  0  0  0  0  0  0  0  0  0  0  0
   -1.1958    1.8876    5.3998 C   0  0  0  0  0  0  0  0  0  0  0  0
    3.6529   -4.7805   -4.2321 C   0  0  0  0  0  0  0  0  0  0  0  0
    2.0492   -5.9127   -2.7271 C   0  0  0  0  0  0  0  0  0  0  0  0
  1  2  1  0  0  0  0
  1 10  1  0  0  0  0
  1 16  1  0  0  0  0
  2  4  2  0  0  0  0
  2  9  1  0  0  0  0
  4  6  1  0  0  0  0
  6  7  2  0  0  0  0
  7  8  1  0  0  0  0
  8  9  2  0  0  0  0
 10 11  2  0  0  0  0
 10 15  1  0  0  0  0
 11 12  1  0  0  0  0
 12 13  2  0  0  0  0
 13  3  1  0  0  0  0
 13 14  1  0  0  0  0
 14 15  2  0  0  0  0
 16 17  2  0  0  0  0
 16 21  1  0  0  0  0
 17 18  1  0  0  0  0
 18 19  2  0  0  0  0
 19  5  1  0  0  0  0
 19 20  1  0  0  0  0
 20 21  2  0  0  0  0
 22  3  1  0  0  0  0
 23  3  1  0  0  0  0
 24  5  1  0  0  0  0
 25  5  1  0  0  0  0
M  END
>  <CHROM.1>
-170.68662469,20.63854678,-173.29086951,158.85863546,-155.52071152,0.95514454
-0.16205204,-0.37214260,-3.05226462,-1.22297155,2.60028848

>  <Name>
1q8n_lig

>  <RI>
0

>  <Rbt.Current_Directory>
/home/itssahil/PROJECTS/Mol_Feturizer/New_Systems/rnas/1q8n

>  <Rbt.Executable>
rbdock ($Id: //depot/dev/client3/rdock/2013.1/src/exe/rbdock.cxx#4 $)

>  <Rbt.Library>
libRbt.so (2013.1, Build901 2013/11/27)

>  <Rbt.Parameter_File>
/export/apps/rDock/src/rDock_2013.1_src/data/scripts/dock_solv.prm

>  <Rbt.Receptor>
prm/blind_docking_60.prm

>  <SCORE>
-49.1007

>  <SCORE.INTER>
-51.047

>  <SCORE.INTER.CONST>
1

>  <SCORE.INTER.POLAR>
0

>  <SCORE.INTER.ROT>
5

>  <SCORE.INTER.SOLV>
9.67566

>  <SCORE.INTER.VDW>
-44.1899

>  <SCORE.INTER.norm>
-2.04188

>  <SCORE.INTRA>
1.94628

>  <SCORE.INTRA.DIHEDRAL>
3.85779

>  <SCORE.INTRA.DIHEDRAL.0>
2.1627

>  <SCORE.INTRA.POLAR>
0

>  <SCORE.INTRA.POLAR.0>
0

>  <SCORE.INTRA.REPUL>
0

>  <SCORE.INTRA.REPUL.0>
0

>  <SCORE.INTRA.SOLV>
0.0676098

>  <SCORE.INTRA.SOLV.lig_0>
-5.95779

>  <SCORE.INTRA.VDW>
-0.0164168

>  <SCORE.INTRA.VDW.0>
3.81702

>  <SCORE.INTRA.norm>
0.0778513

>  <SCORE.RESTR>
0

>  <SCORE.RESTR.CAVITY>
0

>  <SCORE.RESTR.norm>
0

>  <SCORE.SYSTEM>
0

>  <SCORE.SYSTEM.CONST>
0

>  <SCORE.SYSTEM.DIHEDRAL>
0

>  <SCORE.SYSTEM.SOLV>
0

>  <SCORE.SYSTEM.norm>
0

>  <SCORE.heavy>
25

>  <SCORE.norm>
-1.96403

>  <RMSD>
1.887

$$$$
1q8n_lig
 OpenBabel11021811403D
libRbt.so/2013.1/901 2013/11/27
 25 27  0  0  0  0  0  0  0  0999 V2000
    0.9937    0.5667   -0.8934 C   0  0  0  0  0  0  0  0  0  0  0  0
    0.9688    1.9669   -1.7325 C   0  0  0  0  0  0  0  0  0  0  0  0
   -0.7611    0.6707    4.7926 N   0  0  0  0  0  0  0  0  0  0  0  0
    1.1601    2.0394   -3.0716 C   0  0  0  0  0  0  0  0  0  0  0  0
    2.6828   -4.6970   -3.2073 N   0  0  0  0  0  0  0  0  0  0  0  0
    1.1354    3.3320   -3.7944 C   0  0  0  0  0  0  0  0  0  0  0  0
    0.9153    4.4789   -3.1118 C   0  0  0  0  0  0  0  0  0  0  0  0
    0.7022    4.4235   -1.6844 C   0  0  0  0  0  0  0  0  0  0  0  0
    0.7287    3.2522   -1.0438 C   0  0  0  0  0  0  0  0  0  0  0  0
    0.5144    0.5900    0.6654 C   0  0  0  0  0  0  0  0  0  0  0  0
    0.9152   -0.3608    1.5346 C   0  0  0  0  0  0  0  0  0  0  0  0
    0.4876   -0.3553    2.9612 C   0  0  0  0  0  0  0  0  0  0  0  0
   -0.3284    0.6277    3.4272 C   0  0  0  0  0  0  0  0  0  0  0  0
   -0.7731    1.6755    2.4889 C   0  0  0  0  0  0  0  0  0  0  0  0
   -0.3801    1.6544    1.2076 C   0  0  0  0  0  0  0  0  0  0  0  0
    1.4906   -0.8560   -1.5848 C   0  0  0  0  0  0  0  0  0  0  0  0
    1.3485   -2.1459   -0.8250 C   0  0  0  0  0  0  0  0  0  0  0  0
    1.7200   -3.3263   -1.3281 C   0  0  0  0  0  0  0  0  0  0  0  0
    2.2978   -3.4241   -2.6736 C   0  0  0  0  0  0  0  0  0  0  0  0
    2.4529   -2.2951   -3.3958 C   0  0  0  0  0  0  0  0  0  0  0  0
    2.0375   -0.9628   -2.8413 C   0  0  0  0  0  0  0  0  0  0  0  0
   -1.1785    1.8856    5.4237 C   0  0  0  0  0  0  0  0  0  0  0  0
   -0.7885   -0.5254    5.5761 C   0  0  0  0  0  0  0  0  0  0  0  0
    2.0451   -5.8981   -2.7500 C   0  0  0  0  0  0  0  0  0  0  0  0
    3.7112   -4.8071   -4.2171 C   0  0  0  0  0  0  0  0  0  0  0  0
  1  2  1  0  0  0  0
  1 10  1  0  0  0  0
  1 16  1  0  0  0  0
  2  4  2  0  0  0  0
  2  9  1  0  0  0  0
  4  6  1  0  0  0  0
  6  7  2  0  0  0  0
  7  8  1  0  0  0  0
  8  9  2  0  0  0  0
 10 11  2  0  0  0  0
 10 15  1  0  0  0  0
 11 12  1  0  0  0  0
 12 13  2  0  0  0  0
 13  3  1  0  0  0  0
 13 14  1  0  0  0  0
 14 15  2  0  0  0  0
 16 17  2  0  0  0  0
 16 21  1  0  0  0  0
 17 18  1  0  0  0  0
 18 19  2  0  0  0  0
 19  5  1  0  0  0  0
 19 20  1  0  0  0  0
 20 21  2  0  0  0  0
 22  3  1  0  0  0  0
 23  3  1  0  0  0  0
 24  5  1  0  0  0  0
 25  5  1  0  0  0  0
M  END
>  <CHROM.1>
-170.33737516,-157.24454795,-173.00880832,156.33716988,26.21787861,0.96313047
-0.16380922,-0.36187233,-0.07922415,1.22168912,-0.55525446

>  <Name>
1q8n_lig

>  <RI>
0

>  <Rbt.Current_Directory>
/home/itssahil/PROJECTS/Mol_Feturizer/New_Systems/rnas/1q8n

>  <Rbt.Executable>
rbdock ($Id: //depot/dev/client3/rdock/2013.1/src/exe/rbdock.cxx#4 $)

>  <Rbt.Library>
libRbt.so (2013.1, Build901 2013/11/27)

>  <Rbt.Parameter_File>
/export/apps/rDock/src/rDock_2013.1_src/data/scripts/dock_solv.prm

>  <Rbt.Receptor>
prm/pocket_docking_5.prm

>  <SCORE>
-49.5287

>  <SCORE.INTER>
-51.3703

>  <SCORE.INTER.CONST>
1

>  <SCORE.INTER.POLAR>
0

>  <SCORE.INTER.ROT>
5

>  <SCORE.INTER.SOLV>
9.69925

>  <SCORE.INTER.VDW>
-44.4133

>  <SCORE.INTER.norm>
-2.05481

>  <SCORE.INTRA>
1.84162

>  <SCORE.INTRA.DIHEDRAL>
4.55671

>  <SCORE.INTRA.DIHEDRAL.0>
2.1627

>  <SCORE.INTRA.POLAR>
0

>  <SCORE.INTRA.POLAR.0>
0

>  <SCORE.INTRA.REPUL>
0

>  <SCORE.INTRA.REPUL.0>
0

>  <SCORE.INTRA.SOLV>
0.0655701

>  <SCORE.INTRA.SOLV.lig_0>
-5.95779

>  <SCORE.INTRA.VDW>
-0.469519

>  <SCORE.INTRA.VDW.0>
3.81702

>  <SCORE.INTRA.norm>
0.0736648

>  <SCORE.RESTR>
0

>  <SCORE.RESTR.CAVITY>
0

>  <SCORE.RESTR.norm>
0

>  <SCORE.SYSTEM>
0

>  <SCORE.SYSTEM.CONST>
0

>  <SCORE.SYSTEM.DIHEDRAL>
0

>  <SCORE.SYSTEM.SOLV>
0

>  <SCORE.SYSTEM.norm>
0

>  <SCORE.heavy>
25

>  <SCORE.norm>
-1.98115

>  <RMSD>
1.892

$$$$
1q8n_lig
 OpenBabel11021811403D
libRbt.so/2013.1/901 2013/11/27
 25 27  0  0  0  0  0  0  0  0999 V2000
    0.9500    0.5752   -0.8796 C   0  0  0  0  0  0  0  0  0  0  0  0
    0.9357    1.9745   -1.7206 C   0  0  0  0  0  0  0  0  0  0  0  0
   -0.8524    0.6508    4.7920 N   0  0  0  0  0  0  0  0  0  0  0  0
    1.1176    2.0427   -3.0612 C   0  0  0  0  0  0  0  0  0  0  0  0
    2.6508   -4.6938   -3.1726 N   0  0  0  0  0  0  0  0  0  0  0  0
    1.1030    3.3345   -3.7858 C   0  0  0  0  0  0  0  0  0  0  0  0
    0.9022    4.4850   -3.1032 C   0  0  0  0  0  0  0  0  0  0  0  0
    0.6993    4.4342   -1.6742 C   0  0  0  0  0  0  0  0  0  0  0  0
    0.7165    3.2635   -1.0320 C   0  0  0  0  0  0  0  0  0  0  0  0
    0.4548    0.6011    0.6742 C   0  0  0  0  0  0  0  0  0  0  0  0
   -0.3035    1.6107    1.1497 C   0  0  0  0  0  0  0  0  0  0  0  0
   -0.7647    1.6508    2.5652 C   0  0  0  0  0  0  0  0  0  0  0  0
   -0.4276    0.6512    3.4233 C   0  0  0  0  0  0  0  0  0  0  0  0
    0.3993   -0.4606    2.9171 C   0  0  0  0  0  0  0  0  0  0  0  0
    0.8074   -0.4800    1.6405 C   0  0  0  0  0  0  0  0  0  0  0  0
    1.4520   -0.8489   -1.5642 C   0  0  0  0  0  0  0  0  0  0  0  0
    1.2737   -2.1414   -0.8162 C   0  0  0  0  0  0  0  0  0  0  0  0
    1.6474   -3.3229   -1.3149 C   0  0  0  0  0  0  0  0  0  0  0  0
    2.2637   -3.4197   -2.6432 C   0  0  0  0  0  0  0  0  0  0  0  0
    2.4522   -2.2886   -3.3542 C   0  0  0  0  0  0  0  0  0  0  0  0
    2.0347   -0.9549   -2.8046 C   0  0  0  0  0  0  0  0  0  0  0  0
   -0.9110   -0.5470    5.5732 C   0  0  0  0  0  0  0  0  0  0  0  0
   -1.2359    1.8740    5.4260 C   0  0  0  0  0  0  0  0  0  0  0  0
    2.0461   -5.8979   -2.6799 C   0  0  0  0  0  0  0  0  0  0  0  0
    3.6483   -4.8022   -4.2132 C   0  0  0  0  0  0  0  0  0  0  0  0
  1  2  1  0  0  0  0
  1 10  1  0  0  0  0
  1 16  1  0  0  0  0
  2  4  2  0  0  0  0
  2  9  1  0  0  0  0
  4  6  1  0  0  0  0
  6  7  2  0  0  0  0
  7  8  1  0  0  0  0
  8  9  2  0  0  0  0
 10 11  2  0  0  0  0
 10 15  1  0  0  0  0
 11 12  1  0  0  0  0
 12 13  2  0  0  0  0
 13  3  1  0  0  0  0
 13 14  1  0  0  0  0
 14 15  2  0  0  0  0
 16 17  2  0  0  0  0
 16 21  1  0  0  0  0
 17 18  1  0  0  0  0
 18 19  2  0  0  0  0
 19  5  1  0  0  0  0
 19 20  1  0  0  0  0
 20 21  2  0  0  0  0
 22  3  1  0  0  0  0
 23  3  1  0  0  0  0
 24  5  1  0  0  0  0
 25  5  1  0  0  0  0
M  END
>  <CHROM.1>
-169.13758590,19.27427308,-171.72090764,158.37379606,22.26459241,0.92117245
-0.17284031,-0.34501708,-3.04594965,-1.21662181,2.60750925

>  <Name>
1q8n_lig

>  <RI>
0

>  <Rbt.Current_Directory>
/home/itssahil/PROJECTS/Mol_Feturizer/New_Systems/rnas/1q8n

>  <Rbt.Executable>
rbdock ($Id: //depot/dev/client3/rdock/2013.1/src/exe/rbdock.cxx#4 $)

>  <Rbt.Library>
libRbt.so (2013.1, Build901 2013/11/27)

>  <Rbt.Parameter_File>
/export/apps/rDock/src/rDock_2013.1_src/data/scripts/dock_solv.prm

>  <Rbt.Receptor>
prm/pocket_docking_5.prm

>  <SCORE>
-49.1332

>  <SCORE.INTER>
-50.9819

>  <SCORE.INTER.CONST>
1

>  <SCORE.INTER.POLAR>
0

>  <SCORE.INTER.ROT>
5

>  <SCORE.INTER.SOLV>
9.61297

>  <SCORE.INTER.VDW>
-44.1256

>  <SCORE.INTER.norm>
-2.03928

>  <SCORE.INTRA>
1.84873

>  <SCORE.INTRA.DIHEDRAL>
3.57134

>  <SCORE.INTRA.DIHEDRAL.0>
2.1627

>  <SCORE.INTRA.POLAR>
0

>  <SCORE.INTRA.POLAR.0>
0

>  <SCORE.INTRA.REPUL>
0

>  <SCORE.INTRA.REPUL.0>
0

>  <SCORE.INTRA.SOLV>
0.0674684

>  <SCORE.INTRA.SOLV.lig_0>
-5.95779

>  <SCORE.INTRA.VDW>
0.0293245

>  <SCORE.INTRA.VDW.0>
3.81702

>  <SCORE.INTRA.norm>
0.0739492

>  <SCORE.RESTR>
0

>  <SCORE.RESTR.CAVITY>
0

>  <SCORE.RESTR.norm>
0

>  <SCORE.SYSTEM>
0

>  <SCORE.SYSTEM.CONST>
0

>  <SCORE.SYSTEM.DIHEDRAL>
0

>  <SCORE.SYSTEM.SOLV>
0

>  <SCORE.SYSTEM.norm>
0

>  <SCORE.heavy>
25

>  <SCORE.norm>
-1.96533

>  <RMSD>
1.893

$$$$
1q8n_lig
 OpenBabel11021811403D
libRbt.so/2013.1/901 2013/11/27
 25 27  0  0  0  0  0  0  0  0999 V2000
    1.0501    0.5842   -0.9229 C   0  0  0  0  0  0  0  0  0  0  0  0
    1.0052    1.9887   -1.7540 C   0  0  0  0  0  0  0  0  0  0  0  0
   -0.7365    0.6241    4.7541 N   0  0  0  0  0  0  0  0  0  0  0  0
    1.1940    2.0715   -3.0928 C   0  0  0  0  0  0  0  0  0  0  0  0
    2.8124   -4.6359   -3.2805 N   0  0  0  0  0  0  0  0  0  0  0  0
    1.1509    3.3677   -3.8082 C   0  0  0  0  0  0  0  0  0  0  0  0
    0.9161    4.5076   -3.1187 C   0  0  0  0  0  0  0  0  0  0  0  0
    0.7053    4.4412   -1.6915 C   0  0  0  0  0  0  0  0  0  0  0  0
    0.7485    3.2667   -1.0576 C   0  0  0  0  0  0  0  0  0  0  0  0
    0.5619    0.5899    0.6333 C   0  0  0  0  0  0  0  0  0  0  0  0
    0.9226   -0.3941    1.4830 C   0  0  0  0  0  0  0  0  0  0  0  0
    0.4862   -0.4051    2.9069 C   0  0  0  0  0  0  0  0  0  0  0  0
   -0.2968    0.5961    3.3904 C   0  0  0  0  0  0  0  0  0  0  0  0
   -0.6973    1.6801    2.4737 C   0  0  0  0  0  0  0  0  0  0  0  0
   -0.2972    1.6735    1.1944 C   0  0  0  0  0  0  0  0  0  0  0  0
    1.5756   -0.8254   -1.6198 C   0  0  0  0  0  0  0  0  0  0  0  0
    1.2714   -2.1431   -0.9620 C   0  0  0  0  0  0  0  0  0  0  0  0
    1.6573   -3.3141   -1.4761 C   0  0  0  0  0  0  0  0  0  0  0  0
    2.4130   -3.3735   -2.7327 C   0  0  0  0  0  0  0  0  0  0  0  0
    2.7177   -2.2188   -3.3608 C   0  0  0  0  0  0  0  0  0  0  0  0
    2.2879   -0.8967   -2.7932 C   0  0  0  0  0  0  0  0  0  0  0  0
   -0.8218   -0.5600    5.5536 C   0  0  0  0  0  0  0  0  0  0  0  0
   -1.1082    1.8629    5.3643 C   0  0  0  0  0  0  0  0  0  0  0  0
    3.9034   -4.7109   -4.2092 C   0  0  0  0  0  0  0  0  0  0  0  0
    2.1383   -5.8605   -2.9125 C   0  0  0  0  0  0  0  0  0  0  0  0
  1  2  1  0  0  0  0
  1 10  1  0  0  0  0
  1 16  1  0  0  0  0
  2  4  2  0  0  0  0
  2  9  1  0  0  0  0
  4  6  1  0  0  0  0
  6  7  2  0  0  0  0
  7  8  1  0  0  0  0
  8  9  2  0  0  0  0
 10 11  2  0  0  0  0
 10 15  1  0  0  0  0
 11 12  1  0  0  0  0
 12 13  2  0  0  0  0
 13  3  1  0  0  0  0
 13 14  1  0  0  0  0
 14 15  2  0  0  0  0
 16 17  2  0  0  0  0
 16 21  1  0  0  0  0
 17 18  1  0  0  0  0
 18 19  2  0  0  0  0
 19  5  1  0  0  0  0
 19 20  1  0  0  0  0
 20 21  2  0  0  0  0
 22  3  1  0  0  0  0
 23  3  1  0  0  0  0
 24  5  1  0  0  0  0
 25  5  1  0  0  0  0
M  END
>  <CHROM.1>
-169.89518971,-160.46143769,-164.02499651,-23.36036604,-158.44990732,1.02218379
-0.14750675,-0.40096087,-3.06889110,-1.21008449,2.58791201

>  <Name>
1q8n_lig

>  <RI>
0

>  <Rbt.Current_Directory>
/home/itssahil/PROJECTS/Mol_Feturizer/New_Systems/rnas/1q8n

>  <Rbt.Executable>
rbdock ($Id: //depot/dev/client3/rdock/2013.1/src/exe/rbdock.cxx#4 $)

>  <Rbt.Library>
libRbt.so (2013.1, Build901 2013/11/27)

>  <Rbt.Parameter_File>
/export/apps/rDock/src/rDock_2013.1_src/data/scripts/dock_solv.prm

>  <Rbt.Receptor>
prm/pocket_docking_5.prm

>  <SCORE>
-49.0976

>  <SCORE.INTER>
-50.82

>  <SCORE.INTER.CONST>
1

>  <SCORE.INTER.POLAR>
0

>  <SCORE.INTER.ROT>
5

>  <SCORE.INTER.SOLV>
9.82168

>  <SCORE.INTER.VDW>
-44.0872

>  <SCORE.INTER.norm>
-2.0328

>  <SCORE.INTRA>
1.7224

>  <SCORE.INTRA.DIHEDRAL>
3.73676

>  <SCORE.INTRA.DIHEDRAL.0>
2.1627

>  <SCORE.INTRA.POLAR>
0

>  <SCORE.INTRA.POLAR.0>
0

>  <SCORE.INTRA.REPUL>
0

>  <SCORE.INTRA.REPUL.0>
0

>  <SCORE.INTRA.SOLV>
0.0639269

>  <SCORE.INTRA.SOLV.lig_0>
-5.95779

>  <SCORE.INTRA.VDW>
-0.17794

>  <SCORE.INTRA.VDW.0>
3.81702

>  <SCORE.INTRA.norm>
0.0688962

>  <SCORE.RESTR>
0

>  <SCORE.RESTR.CAVITY>
0

>  <SCORE.RESTR.norm>
0

>  <SCORE.SYSTEM>
0

>  <SCORE.SYSTEM.CONST>
0

>  <SCORE.SYSTEM.DIHEDRAL>
0

>  <SCORE.SYSTEM.SOLV>
0

>  <SCORE.SYSTEM.norm>
0

>  <SCORE.heavy>
25

>  <SCORE.norm>
-1.9639

>  <RMSD>
1.897

$$$$
1q8n_lig
 OpenBabel11021811413D
libRbt.so/2013.1/901 2013/11/27
 25 27  0  0  0  0  0  0  0  0999 V2000
    0.9688    0.5762   -0.8736 C   0  0  0  0  0  0  0  0  0  0  0  0
    0.9498    1.9705   -1.7229 C   0  0  0  0  0  0  0  0  0  0  0  0
   -0.7556    0.6952    4.8214 N   0  0  0  0  0  0  0  0  0  0  0  0
    1.1293    2.0312   -3.0642 C   0  0  0  0  0  0  0  0  0  0  0  0
    2.6216   -4.7143   -3.1521 N   0  0  0  0  0  0  0  0  0  0  0  0
    1.1106    3.3186   -3.7964 C   0  0  0  0  0  0  0  0  0  0  0  0
    0.9082    4.4727   -3.1203 C   0  0  0  0  0  0  0  0  0  0  0  0
    0.7078    4.4299   -1.6906 C   0  0  0  0  0  0  0  0  0  0  0  0
    0.7288    3.2631   -1.0416 C   0  0  0  0  0  0  0  0  0  0  0  0
    0.4947    0.6140    0.6865 C   0  0  0  0  0  0  0  0  0  0  0  0
   -0.3104    1.5928    1.1493 C   0  0  0  0  0  0  0  0  0  0  0  0
   -0.7532    1.6431    2.5703 C   0  0  0  0  0  0  0  0  0  0  0  0
   -0.3506    0.6845    3.4468 C   0  0  0  0  0  0  0  0  0  0  0  0
    0.5280   -0.3934    2.9548 C   0  0  0  0  0  0  0  0  0  0  0  0
    0.9187   -0.4225    1.6730 C   0  0  0  0  0  0  0  0  0  0  0  0
    1.4548   -0.8544   -1.5561 C   0  0  0  0  0  0  0  0  0  0  0  0
    1.3264   -2.1352   -0.7785 C   0  0  0  0  0  0  0  0  0  0  0  0
    1.6900   -3.3214   -1.2735 C   0  0  0  0  0  0  0  0  0  0  0  0
    2.2449   -3.4352   -2.6273 C   0  0  0  0  0  0  0  0  0  0  0  0
    2.3871   -2.3149   -3.3657 C   0  0  0  0  0  0  0  0  0  0  0  0
    1.9803   -0.9762   -2.8204 C   0  0  0  0  0  0  0  0  0  0  0  0
   -1.2111    1.8846    5.4743 C   0  0  0  0  0  0  0  0  0  0  0  0
   -0.7152   -0.5088    5.5921 C   0  0  0  0  0  0  0  0  0  0  0  0
    3.6241   -4.8123   -4.1738 C   0  0  0  0  0  0  0  0  0  0  0  0
    2.0129   -5.9327   -2.6681 C   0  0  0  0  0  0  0  0  0  0  0  0
  1  2  1  0  0  0  0
  1 10  1  0  0  0  0
  1 16  1  0  0  0  0
  2  4  2  0  0  0  0
  2  9  1  0  0  0  0
  4  6  1  0  0  0  0
  6  7  2  0  0  0  0
  7  8  1  0  0  0  0
  8  9  2  0  0  0  0
 10 11  2  0  0  0  0
 10 15  1  0  0  0  0
 11 12  1  0  0  0  0
 12 13  2  0  0  0  0
 13  3  1  0  0  0  0
 13 14  1  0  0  0  0
 14 15  2  0  0  0  0
 16 17  2  0  0  0  0
 16 21  1  0  0  0  0
 17 18  1  0  0  0  0
 18 19  2  0  0  0  0
 19  5  1  0  0  0  0
 19 20  1  0  0  0  0
 20 21  2  0  0  0  0
 22  3  1  0  0  0  0
 23  3  1  0  0  0  0
 24  5  1  0  0  0  0
 25  5  1  0  0  0  0
M  END
>  <CHROM.1>
-169.92439612,22.79815556,-173.92978169,-21.29774630,-154.30197176,0.94689001
-0.17025618,-0.33243864,-3.06812739,-1.22919035,2.57986534

>  <Name>
1q8n_lig

>  <RI>
0

>  <Rbt.Current_Directory>
/home/itssahil/PROJECTS/Mol_Feturizer/New_Systems/rnas/1q8n

>  <Rbt.Executable>
rbdock ($Id: //depot/dev/client3/rdock/2013.1/src/exe/rbdock.cxx#4 $)

>  <Rbt.Library>
libRbt.so (2013.1, Build901 2013/11/27)

>  <Rbt.Parameter_File>
/export/apps/rDock/src/rDock_2013.1_src/data/scripts/dock_solv.prm

>  <Rbt.Receptor>
prm/pocket_docking_8.prm

>  <SCORE>
-49.0618

>  <SCORE.INTER>
-50.9148

>  <SCORE.INTER.CONST>
1

>  <SCORE.INTER.POLAR>
0

>  <SCORE.INTER.ROT>
5

>  <SCORE.INTER.SOLV>
9.63676

>  <SCORE.INTER.VDW>
-44.0888

>  <SCORE.INTER.norm>
-2.03659

>  <SCORE.INTRA>
1.85296

>  <SCORE.INTRA.DIHEDRAL>
4.09031

>  <SCORE.INTRA.DIHEDRAL.0>
2.1627

>  <SCORE.INTRA.POLAR>
0

>  <SCORE.INTRA.POLAR.0>
0

>  <SCORE.INTRA.REPUL>
0

>  <SCORE.INTRA.REPUL.0>
0

>  <SCORE.INTRA.SOLV>
0.0657365

>  <SCORE.INTRA.SOLV.lig_0>
-5.95779

>  <SCORE.INTRA.VDW>
-0.22506

>  <SCORE.INTRA.VDW.0>
3.81702

>  <SCORE.INTRA.norm>
0.0741184

>  <SCORE.RESTR>
0

>  <SCORE.RESTR.CAVITY>
0

>  <SCORE.RESTR.norm>
0

>  <SCORE.SYSTEM>
0

>  <SCORE.SYSTEM.CONST>
0

>  <SCORE.SYSTEM.DIHEDRAL>
0

>  <SCORE.SYSTEM.SOLV>
0

>  <SCORE.SYSTEM.norm>
0

>  <SCORE.heavy>
25

>  <SCORE.norm>
-1.96247

>  <RMSD>
1.898

$$$$
1q8n_lig
 OpenBabel11021811403D
libRbt.so/2013.1/901 2013/11/27
 25 27  0  0  0  0  0  0  0  0999 V2000
    1.0166    0.5642   -0.8953 C   0  0  0  0  0  0  0  0  0  0  0  0
    0.9792    1.9657   -1.7320 C   0  0  0  0  0  0  0  0  0  0  0  0
   -0.7592    0.6387    4.7847 N   0  0  0  0  0  0  0  0  0  0  0  0
    1.1588    2.0410   -3.0725 C   0  0  0  0  0  0  0  0  0  0  0  0
    2.7406   -4.6764   -3.2354 N   0  0  0  0  0  0  0  0  0  0  0  0
    1.1230    3.3346   -3.7931 C   0  0  0  0  0  0  0  0  0  0  0  0
    0.9045    4.4796   -3.1067 C   0  0  0  0  0  0  0  0  0  0  0  0
    0.7037    4.4212   -1.6777 C   0  0  0  0  0  0  0  0  0  0  0  0
    0.7402    3.2490   -1.0391 C   0  0  0  0  0  0  0  0  0  0  0  0
    0.5312    0.5794    0.6617 C   0  0  0  0  0  0  0  0  0  0  0  0
    0.8630   -0.4181    1.5075 C   0  0  0  0  0  0  0  0  0  0  0  0
    0.4287   -0.4208    2.9320 C   0  0  0  0  0  0  0  0  0  0  0  0
   -0.3226    0.6020    3.4203 C   0  0  0  0  0  0  0  0  0  0  0  0
   -0.6914    1.7010    2.5080 C   0  0  0  0  0  0  0  0  0  0  0  0
   -0.2936    1.6867    1.2280 C   0  0  0  0  0  0  0  0  0  0  0  0
    1.5318   -0.8515   -1.5874 C   0  0  0  0  0  0  0  0  0  0  0  0
    1.2161   -2.1648   -0.9264 C   0  0  0  0  0  0  0  0  0  0  0  0
    1.5933   -3.3403   -1.4365 C   0  0  0  0  0  0  0  0  0  0  0  0
    2.3505   -3.4093   -2.6917 C   0  0  0  0  0  0  0  0  0  0  0  0
    2.6654   -2.2589   -3.3226 C   0  0  0  0  0  0  0  0  0  0  0  0
    2.2454   -0.9318   -2.7594 C   0  0  0  0  0  0  0  0  0  0  0  0
   -1.2251    1.8411    5.4057 C   0  0  0  0  0  0  0  0  0  0  0  0
   -0.7409   -0.5514    5.5776 C   0  0  0  0  0  0  0  0  0  0  0  0
    3.7859   -4.7544   -4.2150 C   0  0  0  0  0  0  0  0  0  0  0  0
    2.1028   -5.9027   -2.8124 C   0  0  0  0  0  0  0  0  0  0  0  0
  1  2  1  0  0  0  0
  1 10  1  0  0  0  0
  1 16  1  0  0  0  0
  2  4  2  0  0  0  0
  2  9  1  0  0  0  0
  4  6  1  0  0  0  0
  6  7  2  0  0  0  0
  7  8  1  0  0  0  0
  8  9  2  0  0  0  0
 10 11  2  0  0  0  0
 10 15  1  0  0  0  0
 11 12  1  0  0  0  0
 12 13  2  0  0  0  0
 13  3  1  0  0  0  0
 13 14  1  0  0  0  0
 14 15  2  0  0  0  0
 16 17  2  0  0  0  0
 16 21  1  0  0  0  0
 17 18  1  0  0  0  0
 18 19  2  0  0  0  0
 19  5  1  0  0  0  0
 19 20  1  0  0  0  0
 20 21  2  0  0  0  0
 22  3  1  0  0  0  0
 23  3  1  0  0  0  0
 24  5  1  0  0  0  0
 25  5  1  0  0  0  0
M  END
>  <CHROM.1>
-169.51641715,-161.90859991,-163.80081001,162.71225033,-161.73407172,0.98539064
-0.16730452,-0.37023820,-3.05981137,-1.21503021,2.59304321

>  <Name>
1q8n_lig

>  <RI>
0

>  <Rbt.Current_Directory>
/home/itssahil/PROJECTS/Mol_Feturizer/New_Systems/rnas/1q8n

>  <Rbt.Executable>
rbdock ($Id: //depot/dev/client3/rdock/2013.1/src/exe/rbdock.cxx#4 $)

>  <Rbt.Library>
libRbt.so (2013.1, Build901 2013/11/27)

>  <Rbt.Parameter_File>
/export/apps/rDock/src/rDock_2013.1_src/data/scripts/dock_solv.prm

>  <Rbt.Receptor>
prm/pocket_docking_4.prm

>  <SCORE>
-49.1896

>  <SCORE.INTER>
-50.7561

>  <SCORE.INTER.CONST>
1

>  <SCORE.INTER.POLAR>
0

>  <SCORE.INTER.ROT>
5

>  <SCORE.INTER.SOLV>
9.69686

>  <SCORE.INTER.VDW>
-44.0031

>  <SCORE.INTER.norm>
-2.03025

>  <SCORE.INTRA>
1.56658

>  <SCORE.INTRA.DIHEDRAL>
2.38545

>  <SCORE.INTRA.DIHEDRAL.0>
2.1627

>  <SCORE.INTRA.POLAR>
0

>  <SCORE.INTRA.POLAR.0>
0

>  <SCORE.INTRA.REPUL>
0

>  <SCORE.INTRA.REPUL.0>
0

>  <SCORE.INTRA.SOLV>
0.0648607

>  <SCORE.INTRA.SOLV.lig_0>
-5.95779

>  <SCORE.INTRA.VDW>
0.341422

>  <SCORE.INTRA.VDW.0>
3.81702

>  <SCORE.INTRA.norm>
0.0626631

>  <SCORE.RESTR>
0

>  <SCORE.RESTR.CAVITY>
0

>  <SCORE.RESTR.norm>
0

>  <SCORE.SYSTEM>
0

>  <SCORE.SYSTEM.CONST>
0

>  <SCORE.SYSTEM.DIHEDRAL>
0

>  <SCORE.SYSTEM.SOLV>
0

>  <SCORE.SYSTEM.norm>
0

>  <SCORE.heavy>
25

>  <SCORE.norm>
-1.96758

>  <RMSD>
1.899

$$$$
1q8n_lig
 OpenBabel11021811403D
libRbt.so/2013.1/901 2013/11/27
 25 27  0  0  0  0  0  0  0  0999 V2000
    0.8950    0.6694   -0.5791 C   0  0  0  0  0  0  0  0  0  0  0  0
    0.8941    2.0217   -1.4938 C   0  0  0  0  0  0  0  0  0  0  0  0
    2.7273   -4.4102   -3.0815 N   0  0  0  0  0  0  0  0  0  0  0  0
    0.6951    3.2638   -0.9914 C   0  0  0  0  0  0  0  0  0  0  0  0
   -1.0308    0.9235    5.0901 N   0  0  0  0  0  0  0  0  0  0  0  0
    0.6963    4.4653   -1.8577 C   0  0  0  0  0  0  0  0  0  0  0  0
    0.9020    4.3335   -3.1882 C   0  0  0  0  0  0  0  0  0  0  0  0
    1.1231    3.0187   -3.7437 C   0  0  0  0  0  0  0  0  0  0  0  0
    1.1178    1.9430   -2.9525 C   0  0  0  0  0  0  0  0  0  0  0  0
    1.3963   -0.7253   -1.2602 C   0  0  0  0  0  0  0  0  0  0  0  0
    1.1560   -1.9161   -0.6733 C   0  0  0  0  0  0  0  0  0  0  0  0
    1.6062   -3.1992   -1.2807 C   0  0  0  0  0  0  0  0  0  0  0  0
    2.2787   -3.1980   -2.4626 C   0  0  0  0  0  0  0  0  0  0  0  0
    2.5468   -1.9036   -3.1173 C   0  0  0  0  0  0  0  0  0  0  0  0
    2.1361   -0.7579   -2.5559 C   0  0  0  0  0  0  0  0  0  0  0  0
    0.4022    0.6866    1.0039 C   0  0  0  0  0  0  0  0  0  0  0  0
   -0.4227    1.8344    1.5174 C   0  0  0  0  0  0  0  0  0  0  0  0
   -0.8592    1.9041    2.7779 C   0  0  0  0  0  0  0  0  0  0  0  0
   -0.5481    0.8435    3.7433 C   0  0  0  0  0  0  0  0  0  0  0  0
    0.1946   -0.2066    3.3354 C   0  0  0  0  0  0  0  0  0  0  0  0
    0.6895   -0.2965    1.9205 C   0  0  0  0  0  0  0  0  0  0  0  0
    3.7513   -4.4238   -4.0814 C   0  0  0  0  0  0  0  0  0  0  0  0
    2.1514   -5.6645   -2.7068 C   0  0  0  0  0  0  0  0  0  0  0  0
   -1.1236   -0.2581    5.8986 C   0  0  0  0  0  0  0  0  0  0  0  0
   -1.4290    2.1860    5.6706 C   0  0  0  0  0  0  0  0  0  0  0  0
  1  2  1  0  0  0  0
  1 10  1  0  0  0  0
  1 16  1  0  0  0  0
  2  4  2  0  0  0  0
  2  9  1  0  0  0  0
  4  6  1  0  0  0  0
  6  7  2  0  0  0  0
  7  8  1  0  0  0  0
  8  9  2  0  0  0  0
 10 11  2  0  0  0  0
 10 15  1  0  0  0  0
 11 12  1  0  0  0  0
 12 13  2  0  0  0  0
 13  3  1  0  0  0  0
 13 14  1  0  0  0  0
 14 15  2  0  0  0  0
 16 17  2  0  0  0  0
 16 21  1  0  0  0  0
 17 18  1  0  0  0  0
 18 19  2  0  0  0  0
 19  5  1  0  0  0  0
 19 20  1  0  0  0  0
 20 21  2  0  0  0  0
 22  3  1  0  0  0  0
 23  3  1  0  0  0  0
 24  5  1  0  0  0  0
 25  5  1  0  0  0  0
M  END
>  <CHROM.1>
-169.71171471,-165.49691935,17.79285948,-161.02475048,159.34824692,0.87659023
-0.01441867,-0.16306105,3.13977544,-1.20019266,2.58415083

>  <Name>
1q8n_lig

>  <RI>
0

>  <Rbt.Current_Directory>
/home/itssahil/PROJECTS/Mol_Feturizer/New_Systems/rnas/1q8n

>  <Rbt.Executable>
rbdock ($Id: //depot/dev/client3/rdock/2013.1/src/exe/rbdock.cxx#4 $)

>  <Rbt.Library>
libRbt.so (2013.1, Build901 2013/11/27)

>  <Rbt.Parameter_File>
/export/apps/rDock/src/rDock_2013.1_src/data/scripts/dock_solv.prm

>  <Rbt.Receptor>
prm/blind_docking_100.prm

>  <SCORE>
-48.2449

>  <SCORE.INTER>
-49.9615

>  <SCORE.INTER.CONST>
1

>  <SCORE.INTER.POLAR>
0

>  <SCORE.INTER.ROT>
5

>  <SCORE.INTER.SOLV>
9.47377

>  <SCORE.INTER.VDW>
-43.399

>  <SCORE.INTER.norm>
-1.99846

>  <SCORE.INTRA>
1.71666

>  <SCORE.INTRA.DIHEDRAL>
2.94426

>  <SCORE.INTRA.DIHEDRAL.0>
2.1627

>  <SCORE.INTRA.POLAR>
0

>  <SCORE.INTRA.POLAR.0>
0

>  <SCORE.INTRA.REPUL>
0

>  <SCORE.INTRA.REPUL.0>
0

>  <SCORE.INTRA.SOLV>
0.0664873

>  <SCORE.INTRA.SOLV.lig_0>
-5.95779

>  <SCORE.INTRA.VDW>
0.211287

>  <SCORE.INTRA.VDW.0>
3.81702

>  <SCORE.INTRA.norm>
0.0686664

>  <SCORE.RESTR>
0

>  <SCORE.RESTR.CAVITY>
0

>  <SCORE.RESTR.norm>
0

>  <SCORE.SYSTEM>
0

>  <SCORE.SYSTEM.CONST>
0

>  <SCORE.SYSTEM.DIHEDRAL>
0

>  <SCORE.SYSTEM.SOLV>
0

>  <SCORE.SYSTEM.norm>
0

>  <SCORE.heavy>
25

>  <SCORE.norm>
-1.9298

>  <RMSD>
1.900

$$$$
1q8n_lig
 OpenBabel11021811413D
libRbt.so/2013.1/901 2013/11/27
 25 27  0  0  0  0  0  0  0  0999 V2000
    0.9349    0.6402   -0.7933 C   0  0  0  0  0  0  0  0  0  0  0  0
    0.9216    2.0479   -1.6202 C   0  0  0  0  0  0  0  0  0  0  0  0
   -0.8401    0.6653    4.8874 N   0  0  0  0  0  0  0  0  0  0  0  0
    0.7383    3.2562   -1.0360 C   0  0  0  0  0  0  0  0  0  0  0  0
    2.6109   -4.6114   -3.1439 N   0  0  0  0  0  0  0  0  0  0  0  0
    0.7274    4.5103   -1.8241 C   0  0  0  0  0  0  0  0  0  0  0  0
    0.9056    4.4627   -3.1642 C   0  0  0  0  0  0  0  0  0  0  0  0
    1.1095    3.1852   -3.8064 C   0  0  0  0  0  0  0  0  0  0  0  0
    1.1154    2.0614   -3.0852 C   0  0  0  0  0  0  0  0  0  0  0  0
    0.4471    0.6523    0.7630 C   0  0  0  0  0  0  0  0  0  0  0  0
   -0.3204    1.6505    1.2476 C   0  0  0  0  0  0  0  0  0  0  0  0
   -0.7750    1.6779    2.6655 C   0  0  0  0  0  0  0  0  0  0  0  0
   -0.4221    0.6778    3.5167 C   0  0  0  0  0  0  0  0  0  0  0  0
    0.4151   -0.4217    3.0006 C   0  0  0  0  0  0  0  0  0  0  0  0
    0.8170   -0.4298    1.7219 C   0  0  0  0  0  0  0  0  0  0  0  0
    1.4284   -0.7788   -1.4945 C   0  0  0  0  0  0  0  0  0  0  0  0
    1.2786   -2.0742   -0.7455 C   0  0  0  0  0  0  0  0  0  0  0  0
    1.6471   -3.2520   -1.2569 C   0  0  0  0  0  0  0  0  0  0  0  0
    2.2291   -3.3413   -2.6012 C   0  0  0  0  0  0  0  0  0  0  0  0
    2.3912   -2.2071   -3.3138 C   0  0  0  0  0  0  0  0  0  0  0  0
    1.9792   -0.8777   -2.7500 C   0  0  0  0  0  0  0  0  0  0  0  0
   -0.8801   -0.5370    5.6629 C   0  0  0  0  0  0  0  0  0  0  0  0
   -1.2354    1.8805    5.5295 C   0  0  0  0  0  0  0  0  0  0  0  0
    2.0385   -5.8218   -2.6285 C   0  0  0  0  0  0  0  0  0  0  0  0
    3.5703   -4.7093   -4.2206 C   0  0  0  0  0  0  0  0  0  0  0  0
  1  2  1  0  0  0  0
  1 10  1  0  0  0  0
  1 16  1  0  0  0  0
  2  4  2  0  0  0  0
  2  9  1  0  0  0  0
  4  6  1  0  0  0  0
  6  7  2  0  0  0  0
  7  8  1  0  0  0  0
  8  9  2  0  0  0  0
 10 11  2  0  0  0  0
 10 15  1  0  0  0  0
 11 12  1  0  0  0  0
 12 13  2  0  0  0  0
 13  3  1  0  0  0  0
 13 14  1  0  0  0  0
 14 15  2  0  0  0  0
 16 17  2  0  0  0  0
 16 21  1  0  0  0  0
 17 18  1  0  0  0  0
 18 19  2  0  0  0  0
 19  5  1  0  0  0  0
 19 20  1  0  0  0  0
 20 21  2  0  0  0  0
 22  3  1  0  0  0  0
 23  3  1  0  0  0  0
 24  5  1  0  0  0  0
 25  5  1  0  0  0  0
M  END
>  <CHROM.1>
11.10137410,20.18605919,-173.15263866,158.41642836,21.56600778,0.91202996
-0.13230790,-0.29833393,-3.09315325,-1.22265669,2.59591762

>  <Name>
1q8n_lig

>  <RI>
0

>  <Rbt.Current_Directory>
/home/itssahil/PROJECTS/Mol_Feturizer/New_Systems/rnas/1q8n

>  <Rbt.Executable>
rbdock ($Id: //depot/dev/client3/rdock/2013.1/src/exe/rbdock.cxx#4 $)

>  <Rbt.Library>
libRbt.so (2013.1, Build901 2013/11/27)

>  <Rbt.Parameter_File>
/export/apps/rDock/src/rDock_2013.1_src/data/scripts/dock_solv.prm

>  <Rbt.Receptor>
prm/pocket_docking_6.prm

>  <SCORE>
-48.4203

>  <SCORE.INTER>
-50.1556

>  <SCORE.INTER.CONST>
1

>  <SCORE.INTER.POLAR>
0

>  <SCORE.INTER.ROT>
5

>  <SCORE.INTER.SOLV>
9.53483

>  <SCORE.INTER.VDW>
-43.5486

>  <SCORE.INTER.norm>
-2.00622

>  <SCORE.INTRA>
1.73525

>  <SCORE.INTRA.DIHEDRAL>
3.45658

>  <SCORE.INTRA.DIHEDRAL.0>
2.1627

>  <SCORE.INTRA.POLAR>
0

>  <SCORE.INTRA.POLAR.0>
0

>  <SCORE.INTRA.REPUL>
0

>  <SCORE.INTRA.REPUL.0>
0

>  <SCORE.INTRA.SOLV>
0.067067

>  <SCORE.INTRA.SOLV.lig_0>
-5.95779

>  <SCORE.INTRA.VDW>
-0.0265756

>  <SCORE.INTRA.VDW.0>
3.81702

>  <SCORE.INTRA.norm>
0.06941

>  <SCORE.RESTR>
0

>  <SCORE.RESTR.CAVITY>
0

>  <SCORE.RESTR.norm>
0

>  <SCORE.SYSTEM>
0

>  <SCORE.SYSTEM.CONST>
0

>  <SCORE.SYSTEM.DIHEDRAL>
0

>  <SCORE.SYSTEM.SOLV>
0

>  <SCORE.SYSTEM.norm>
0

>  <SCORE.heavy>
25

>  <SCORE.norm>
-1.93681

>  <RMSD>
1.900

$$$$
1q8n_lig
 OpenBabel11021811413D
libRbt.so/2013.1/901 2013/11/27
 25 27  0  0  0  0  0  0  0  0999 V2000
    0.9508    0.6321   -0.7830 C   0  0  0  0  0  0  0  0  0  0  0  0
    0.9358    2.0412   -1.6074 C   0  0  0  0  0  0  0  0  0  0  0  0
   -0.8232    0.6853    4.8978 N   0  0  0  0  0  0  0  0  0  0  0  0
    0.7255    3.2458   -1.0248 C   0  0  0  0  0  0  0  0  0  0  0  0
    2.6284   -4.6151   -3.1421 N   0  0  0  0  0  0  0  0  0  0  0  0
    0.7140    4.5013   -1.8107 C   0  0  0  0  0  0  0  0  0  0  0  0
    0.9193    4.4587   -3.1472 C   0  0  0  0  0  0  0  0  0  0  0  0
    1.1523    3.1853   -3.7875 C   0  0  0  0  0  0  0  0  0  0  0  0
    1.1583    2.0601   -3.0683 C   0  0  0  0  0  0  0  0  0  0  0  0
    0.4662    0.6415    0.7743 C   0  0  0  0  0  0  0  0  0  0  0  0
    0.8522   -0.3251    1.6328 C   0  0  0  0  0  0  0  0  0  0  0  0
    0.4196   -0.3325    3.0578 C   0  0  0  0  0  0  0  0  0  0  0  0
   -0.3861    0.6544    3.5334 C   0  0  0  0  0  0  0  0  0  0  0  0
   -0.8146    1.7194    2.6071 C   0  0  0  0  0  0  0  0  0  0  0  0
   -0.4173    1.7098    1.3270 C   0  0  0  0  0  0  0  0  0  0  0  0
    1.4429   -0.7857   -1.4876 C   0  0  0  0  0  0  0  0  0  0  0  0
    1.3313   -2.0773   -0.7254 C   0  0  0  0  0  0  0  0  0  0  0  0
    1.7006   -3.2540   -1.2385 C   0  0  0  0  0  0  0  0  0  0  0  0
    2.2455   -3.3460   -2.5980 C   0  0  0  0  0  0  0  0  0  0  0  0
    2.3725   -2.2153   -3.3231 C   0  0  0  0  0  0  0  0  0  0  0  0
    1.9592   -0.8871   -2.7575 C   0  0  0  0  0  0  0  0  0  0  0  0
   -1.2335    1.8962    5.5412 C   0  0  0  0  0  0  0  0  0  0  0  0
   -0.8624   -0.5193    5.6677 C   0  0  0  0  0  0  0  0  0  0  0  0
    2.0458   -5.8256   -2.6385 C   0  0  0  0  0  0  0  0  0  0  0  0
    3.5994   -4.7120   -4.2086 C   0  0  0  0  0  0  0  0  0  0  0  0
  1  2  1  0  0  0  0
  1 10  1  0  0  0  0
  1 16  1  0  0  0  0
  2  4  2  0  0  0  0
  2  9  1  0  0  0  0
  4  6  1  0  0  0  0
  6  7  2  0  0  0  0
  7  8  1  0  0  0  0
  8  9  2  0  0  0  0
 10 11  2  0  0  0  0
 10 15  1  0  0  0  0
 11 12  1  0  0  0  0
 12 13  2  0  0  0  0
 13  3  1  0  0  0  0
 13 14  1  0  0  0  0
 14 15  2  0  0  0  0
 16 17  2  0  0  0  0
 16 21  1  0  0  0  0
 17 18  1  0  0  0  0
 18 19  2  0  0  0  0
 19  5  1  0  0  0  0
 19 20  1  0  0  0  0
 20 21  2  0  0  0  0
 22  3  1  0  0  0  0
 23  3  1  0  0  0  0
 24  5  1  0  0  0  0
 25  5  1  0  0  0  0
M  END
>  <CHROM.1>
9.64999886,-157.67288613,-174.90837002,156.61213595,24.10712622,0.92204172
-0.12287893,-0.29126136,-3.09115234,-1.22153097,2.59219658

>  <Name>
1q8n_lig

>  <RI>
0

>  <Rbt.Current_Directory>
/home/itssahil/PROJECTS/Mol_Feturizer/New_Systems/rnas/1q8n

>  <Rbt.Executable>
rbdock ($Id: //depot/dev/client3/rdock/2013.1/src/exe/rbdock.cxx#4 $)

>  <Rbt.Library>
libRbt.so (2013.1, Build901 2013/11/27)

>  <Rbt.Parameter_File>
/export/apps/rDock/src/rDock_2013.1_src/data/scripts/dock_solv.prm

>  <Rbt.Receptor>
prm/pocket_docking_8.prm

>  <SCORE>
-48.663

>  <SCORE.INTER>
-50.4732

>  <SCORE.INTER.CONST>
1

>  <SCORE.INTER.POLAR>
0

>  <SCORE.INTER.ROT>
5

>  <SCORE.INTER.SOLV>
9.60954

>  <SCORE.INTER.VDW>
-43.7853

>  <SCORE.INTER.norm>
-2.01893

>  <SCORE.INTRA>
1.81023

>  <SCORE.INTRA.DIHEDRAL>
4.14878

>  <SCORE.INTRA.DIHEDRAL.0>
2.1627

>  <SCORE.INTRA.POLAR>
0

>  <SCORE.INTRA.POLAR.0>
0

>  <SCORE.INTRA.REPUL>
0

>  <SCORE.INTRA.REPUL.0>
0

>  <SCORE.INTRA.SOLV>
0.0662313

>  <SCORE.INTRA.SOLV.lig_0>
-5.95779

>  <SCORE.INTRA.VDW>
-0.297278

>  <SCORE.INTRA.VDW.0>
3.81702

>  <SCORE.INTRA.norm>
0.072409

>  <SCORE.RESTR>
0

>  <SCORE.RESTR.CAVITY>
0

>  <SCORE.RESTR.norm>
0

>  <SCORE.SYSTEM>
0

>  <SCORE.SYSTEM.CONST>
0

>  <SCORE.SYSTEM.DIHEDRAL>
0

>  <SCORE.SYSTEM.SOLV>
0

>  <SCORE.SYSTEM.norm>
0

>  <SCORE.heavy>
25

>  <SCORE.norm>
-1.94652

>  <RMSD>
1.901

$$$$
1q8n_lig
 OpenBabel11021811403D
libRbt.so/2013.1/901 2013/11/27
 25 27  0  0  0  0  0  0  0  0999 V2000
    0.9664    0.5877   -0.8779 C   0  0  0  0  0  0  0  0  0  0  0  0
    0.9746    1.9894   -1.7150 C   0  0  0  0  0  0  0  0  0  0  0  0
   -0.7719    0.6883    4.8133 N   0  0  0  0  0  0  0  0  0  0  0  0
    1.2210    2.0644   -3.0448 C   0  0  0  0  0  0  0  0  0  0  0  0
    2.5458   -4.7103   -3.1908 N   0  0  0  0  0  0  0  0  0  0  0  0
    1.2247    3.3582   -3.7659 C   0  0  0  0  0  0  0  0  0  0  0  0
    0.9753    4.5038   -3.0910 C   0  0  0  0  0  0  0  0  0  0  0  0
    0.7034    4.4457   -1.6737 C   0  0  0  0  0  0  0  0  0  0  0  0
    0.7048    3.2733   -1.0345 C   0  0  0  0  0  0  0  0  0  0  0  0
    0.4878    0.6202    0.6810 C   0  0  0  0  0  0  0  0  0  0  0  0
   -0.4260    1.5136    1.1136 C   0  0  0  0  0  0  0  0  0  0  0  0
   -0.8745    1.5577    2.5330 C   0  0  0  0  0  0  0  0  0  0  0  0
   -0.3655    0.6806    3.4391 C   0  0  0  0  0  0  0  0  0  0  0  0
    0.6329   -0.3036    2.9803 C   0  0  0  0  0  0  0  0  0  0  0  0
    1.0269   -0.3282    1.6994 C   0  0  0  0  0  0  0  0  0  0  0  0
    1.4294   -0.8452   -1.5714 C   0  0  0  0  0  0  0  0  0  0  0  0
    1.3440   -2.1208   -0.7795 C   0  0  0  0  0  0  0  0  0  0  0  0
    1.6919   -3.3086   -1.2820 C   0  0  0  0  0  0  0  0  0  0  0  0
    2.1856   -3.4295   -2.6587 C   0  0  0  0  0  0  0  0  0  0  0  0
    2.2875   -2.3139   -3.4108 C   0  0  0  0  0  0  0  0  0  0  0  0
    1.8979   -0.9735   -2.8573 C   0  0  0  0  0  0  0  0  0  0  0  0
   -0.7414   -0.4899    5.6254 C   0  0  0  0  0  0  0  0  0  0  0  0
   -1.2270    1.8998    5.4217 C   0  0  0  0  0  0  0  0  0  0  0  0
    3.4511   -4.8064   -4.2997 C   0  0  0  0  0  0  0  0  0  0  0  0
    2.0173   -5.9322   -2.6277 C   0  0  0  0  0  0  0  0  0  0  0  0
  1  2  1  0  0  0  0
  1 10  1  0  0  0  0
  1 16  1  0  0  0  0
  2  4  2  0  0  0  0
  2  9  1  0  0  0  0
  4  6  1  0  0  0  0
  6  7  2  0  0  0  0
  7  8  1  0  0  0  0
  8  9  2  0  0  0  0
 10 11  2  0  0  0  0
 10 15  1  0  0  0  0
 11 12  1  0  0  0  0
 12 13  2  0  0  0  0
 13  3  1  0  0  0  0
 13 14  1  0  0  0  0
 14 15  2  0  0  0  0
 16 17  2  0  0  0  0
 16 21  1  0  0  0  0
 17 18  1  0  0  0  0
 18 19  2  0  0  0  0
 19  5  1  0  0  0  0
 19 20  1  0  0  0  0
 20 21  2  0  0  0  0
 22  3  1  0  0  0  0
 23  3  1  0  0  0  0
 24  5  1  0  0  0  0
 25  5  1  0  0  0  0
M  END
>  <CHROM.1>
-173.10010239,30.79808573,-177.14856202,152.15520002,-157.39124074,0.93262881
-0.15966976,-0.34160459,-0.09988867,1.23417563,-0.52918803

>  <Name>
1q8n_lig

>  <RI>
0

>  <Rbt.Current_Directory>
/home/itssahil/PROJECTS/Mol_Feturizer/New_Systems/rnas/1q8n

>  <Rbt.Executable>
rbdock ($Id: //depot/dev/client3/rdock/2013.1/src/exe/rbdock.cxx#4 $)

>  <Rbt.Library>
libRbt.so (2013.1, Build901 2013/11/27)

>  <Rbt.Parameter_File>
/export/apps/rDock/src/rDock_2013.1_src/data/scripts/dock_solv.prm

>  <Rbt.Receptor>
prm/blind_docking_100.prm

>  <SCORE>
-48.5452

>  <SCORE.INTER>
-50.2313

>  <SCORE.INTER.CONST>
1

>  <SCORE.INTER.POLAR>
0

>  <SCORE.INTER.ROT>
5

>  <SCORE.INTER.SOLV>
9.76952

>  <SCORE.INTER.VDW>
-43.6774

>  <SCORE.INTER.norm>
-2.00925

>  <SCORE.INTRA>
1.68609

>  <SCORE.INTRA.DIHEDRAL>
4.67874

>  <SCORE.INTRA.DIHEDRAL.0>
2.1627

>  <SCORE.INTRA.POLAR>
0

>  <SCORE.INTRA.POLAR.0>
0

>  <SCORE.INTRA.REPUL>
0

>  <SCORE.INTRA.REPUL.0>
0

>  <SCORE.INTRA.SOLV>
0.0601032

>  <SCORE.INTRA.SOLV.lig_0>
-5.95779

>  <SCORE.INTRA.VDW>
-0.683332

>  <SCORE.INTRA.VDW.0>
3.81702

>  <SCORE.INTRA.norm>
0.0674436

>  <SCORE.RESTR>
0

>  <SCORE.RESTR.CAVITY>
0

>  <SCORE.RESTR.norm>
0

>  <SCORE.SYSTEM>
0

>  <SCORE.SYSTEM.CONST>
0

>  <SCORE.SYSTEM.DIHEDRAL>
0

>  <SCORE.SYSTEM.SOLV>
0

>  <SCORE.SYSTEM.norm>
0

>  <SCORE.heavy>
25

>  <SCORE.norm>
-1.94181

>  <RMSD>
1.902

$$$$
1q8n_lig
 OpenBabel11021811413D
libRbt.so/2013.1/901 2013/11/27
 25 27  0  0  0  0  0  0  0  0999 V2000
    0.9979    0.5642   -0.8871 C   0  0  0  0  0  0  0  0  0  0  0  0
    0.9729    1.9689   -1.7188 C   0  0  0  0  0  0  0  0  0  0  0  0
   -0.7700    0.6353    4.7954 N   0  0  0  0  0  0  0  0  0  0  0  0
    1.1771    2.0500   -3.0554 C   0  0  0  0  0  0  0  0  0  0  0  0
    2.6915   -4.6848   -3.2306 N   0  0  0  0  0  0  0  0  0  0  0  0
    1.1518    3.3464   -3.7714 C   0  0  0  0  0  0  0  0  0  0  0  0
    0.9180    4.4882   -3.0847 C   0  0  0  0  0  0  0  0  0  0  0  0
    0.6910    4.4236   -1.6599 C   0  0  0  0  0  0  0  0  0  0  0  0
    0.7182    3.2489   -1.0254 C   0  0  0  0  0  0  0  0  0  0  0  0
    0.5150    0.5786    0.6707 C   0  0  0  0  0  0  0  0  0  0  0  0
    0.9033   -0.3845    1.5321 C   0  0  0  0  0  0  0  0  0  0  0  0
    0.4722   -0.3874    2.9576 C   0  0  0  0  0  0  0  0  0  0  0  0
   -0.3344    0.6001    3.4306 C   0  0  0  0  0  0  0  0  0  0  0  0
   -0.7653    1.6612    2.5009 C   0  0  0  0  0  0  0  0  0  0  0  0
   -0.3695    1.6476    1.2204 C   0  0  0  0  0  0  0  0  0  0  0  0
    1.4984   -0.8539   -1.5850 C   0  0  0  0  0  0  0  0  0  0  0  0
    1.3093   -2.1543   -0.8537 C   0  0  0  0  0  0  0  0  0  0  0  0
    1.6813   -3.3316   -1.3637 C   0  0  0  0  0  0  0  0  0  0  0  0
    2.3063   -3.4154   -2.6888 C   0  0  0  0  0  0  0  0  0  0  0  0
    2.5046   -2.2768   -3.3850 C   0  0  0  0  0  0  0  0  0  0  0  0
    2.0892   -0.9479   -2.8225 C   0  0  0  0  0  0  0  0  0  0  0  0
   -0.8159   -0.5385    5.6131 C   0  0  0  0  0  0  0  0  0  0  0  0
   -1.1778    1.8713    5.3882 C   0  0  0  0  0  0  0  0  0  0  0  0
    3.7058   -4.7639   -4.2422 C   0  0  0  0  0  0  0  0  0  0  0  0
    2.0797   -5.9123   -2.7740 C   0  0  0  0  0  0  0  0  0  0  0  0
  1  2  1  0  0  0  0
  1 10  1  0  0  0  0
  1 16  1  0  0  0  0
  2  4  2  0  0  0  0
  2  9  1  0  0  0  0
  4  6  1  0  0  0  0
  6  7  2  0  0  0  0
  7  8  1  0  0  0  0
  8  9  2  0  0  0  0
 10 11  2  0  0  0  0
 10 15  1  0  0  0  0
 11 12  1  0  0  0  0
 12 13  2  0  0  0  0
 13  3  1  0  0  0  0
 13 14  1  0  0  0  0
 14 15  2  0  0  0  0
 16 17  2  0  0  0  0
 16 21  1  0  0  0  0
 17 18  1  0  0  0  0
 18 19  2  0  0  0  0
 19  5  1  0  0  0  0
 19 20  1  0  0  0  0
 20 21  2  0  0  0  0
 22  3  1  0  0  0  0
 23  3  1  0  0  0  0
 24  5  1  0  0  0  0
 25  5  1  0  0  0  0
M  END
>  <CHROM.1>
-170.84941297,-157.97622577,-170.72612523,-23.02444703,-157.01299525,0.96515784
-0.16680818,-0.36072732,-0.08518218,1.21930142,-0.54461387

>  <Name>
1q8n_lig

>  <RI>
0

>  <Rbt.Current_Directory>
/home/itssahil/PROJECTS/Mol_Feturizer/New_Systems/rnas/1q8n

>  <Rbt.Executable>
rbdock ($Id: //depot/dev/client3/rdock/2013.1/src/exe/rbdock.cxx#4 $)

>  <Rbt.Library>
libRbt.so (2013.1, Build901 2013/11/27)

>  <Rbt.Parameter_File>
/export/apps/rDock/src/rDock_2013.1_src/data/scripts/dock_solv.prm

>  <Rbt.Receptor>
prm/pocket_docking_7.prm

>  <SCORE>
-49.4329

>  <SCORE.INTER>
-51.2025

>  <SCORE.INTER.CONST>
1

>  <SCORE.INTER.POLAR>
0

>  <SCORE.INTER.ROT>
5

>  <SCORE.INTER.SOLV>
9.70826

>  <SCORE.INTER.VDW>
-44.3044

>  <SCORE.INTER.norm>
-2.0481

>  <SCORE.INTRA>
1.76958

>  <SCORE.INTRA.DIHEDRAL>
3.90712

>  <SCORE.INTRA.DIHEDRAL.0>
2.1627

>  <SCORE.INTRA.POLAR>
0

>  <SCORE.INTRA.POLAR.0>
0

>  <SCORE.INTRA.REPUL>
0

>  <SCORE.INTRA.REPUL.0>
0

>  <SCORE.INTRA.SOLV>
0.065693

>  <SCORE.INTRA.SOLV.lig_0>
-5.95779

>  <SCORE.INTRA.VDW>
-0.216823

>  <SCORE.INTRA.VDW.0>
3.81702

>  <SCORE.INTRA.norm>
0.0707834

>  <SCORE.RESTR>
0

>  <SCORE.RESTR.CAVITY>
0

>  <SCORE.RESTR.norm>
0

>  <SCORE.SYSTEM>
0

>  <SCORE.SYSTEM.CONST>
0

>  <SCORE.SYSTEM.DIHEDRAL>
0

>  <SCORE.SYSTEM.SOLV>
0

>  <SCORE.SYSTEM.norm>
0

>  <SCORE.heavy>
25

>  <SCORE.norm>
-1.97732

>  <RMSD>
1.905

$$$$
1q8n_lig
 OpenBabel11021811413D
libRbt.so/2013.1/901 2013/11/27
 25 27  0  0  0  0  0  0  0  0999 V2000
    0.4584    0.8197   -0.2583 C   0  0  0  0  0  0  0  0  0  0  0  0
    0.5583    2.0011   -1.3806 C   0  0  0  0  0  0  0  0  0  0  0  0
    1.9718   -4.7195   -1.8233 N   0  0  0  0  0  0  0  0  0  0  0  0
    0.7269    3.3100   -1.0752 C   0  0  0  0  0  0  0  0  0  0  0  0
   -1.2242    1.7569    5.4165 N   0  0  0  0  0  0  0  0  0  0  0  0
    0.8068    4.3521   -2.1247 C   0  0  0  0  0  0  0  0  0  0  0  0
    0.7120    4.0014   -3.4277 C   0  0  0  0  0  0  0  0  0  0  0  0
    0.5387    2.6105   -3.7758 C   0  0  0  0  0  0  0  0  0  0  0  0
    0.4661    1.6804   -2.8203 C   0  0  0  0  0  0  0  0  0  0  0  0
    0.8724   -0.6970   -0.6924 C   0  0  0  0  0  0  0  0  0  0  0  0
    1.1819   -0.9988   -1.9704 C   0  0  0  0  0  0  0  0  0  0  0  0
    1.5620   -2.3779   -2.3848 C   0  0  0  0  0  0  0  0  0  0  0  0
    1.6089   -3.3798   -1.4665 C   0  0  0  0  0  0  0  0  0  0  0  0
    1.2753   -3.0645   -0.0646 C   0  0  0  0  0  0  0  0  0  0  0  0
    0.9334   -1.8181    0.2908 C   0  0  0  0  0  0  0  0  0  0  0  0
   -0.0493    1.1276    1.2897 C   0  0  0  0  0  0  0  0  0  0  0  0
    0.3535    0.2040    2.4060 C   0  0  0  0  0  0  0  0  0  0  0  0
   -0.0135    0.4006    3.6753 C   0  0  0  0  0  0  0  0  0  0  0  0
   -0.8455    1.5500    4.0501 C   0  0  0  0  0  0  0  0  0  0  0  0
   -1.2398    2.4066    3.0852 C   0  0  0  0  0  0  0  0  0  0  0  0
   -0.8322    2.1967    1.6553 C   0  0  0  0  0  0  0  0  0  0  0  0
    1.6325   -5.8456   -1.0077 C   0  0  0  0  0  0  0  0  0  0  0  0
    2.6970   -4.9707   -3.0300 C   0  0  0  0  0  0  0  0  0  0  0  0
   -0.8192    0.8260    6.4303 C   0  0  0  0  0  0  0  0  0  0  0  0
   -2.0130    2.9022    5.8112 C   0  0  0  0  0  0  0  0  0  0  0  0
  1  2  1  0  0  0  0
  1 10  1  0  0  0  0
  1 16  1  0  0  0  0
  2  4  2  0  0  0  0
  2  9  1  0  0  0  0
  4  6  1  0  0  0  0
  6  7  2  0  0  0  0
  7  8  1  0  0  0  0
  8  9  2  0  0  0  0
 10 11  2  0  0  0  0
 10 15  1  0  0  0  0
 11 12  1  0  0  0  0
 12 13  2  0  0  0  0
 13  3  1  0  0  0  0
 13 14  1  0  0  0  0
 14 15  2  0  0  0  0
 16 17  2  0  0  0  0
 16 21  1  0  0  0  0
 17 18  1  0  0  0  0
 18 19  2  0  0  0  0
 19  5  1  0  0  0  0
 19 20  1  0  0  0  0
 20 21  2  0  0  0  0
 22  3  1  0  0  0  0
 23  3  1  0  0  0  0
 24  5  1  0  0  0  0
 25  5  1  0  0  0  0
M  END
>  <CHROM.1>
-154.96439966,-5.52482537,-156.52865265,-159.90402187,-1.39770823,0.45073954
0.11443747,0.32350209,-0.00926784,1.25232977,-0.67534203

>  <Name>
1q8n_lig

>  <RI>
0

>  <Rbt.Current_Directory>
/home/itssahil/PROJECTS/Mol_Feturizer/New_Systems/rnas/1q8n

>  <Rbt.Executable>
rbdock ($Id: //depot/dev/client3/rdock/2013.1/src/exe/rbdock.cxx#4 $)

>  <Rbt.Library>
libRbt.so (2013.1, Build901 2013/11/27)

>  <Rbt.Parameter_File>
/export/apps/rDock/src/rDock_2013.1_src/data/scripts/dock_solv.prm

>  <Rbt.Receptor>
prm/pocket_docking_6.prm

>  <SCORE>
-47.118

>  <SCORE.INTER>
-48.625

>  <SCORE.INTER.CONST>
1

>  <SCORE.INTER.POLAR>
0

>  <SCORE.INTER.ROT>
5

>  <SCORE.INTER.SOLV>
9.32374

>  <SCORE.INTER.VDW>
-42.4579

>  <SCORE.INTER.norm>
-1.945

>  <SCORE.INTRA>
1.50708

>  <SCORE.INTRA.DIHEDRAL>
1.51863

>  <SCORE.INTRA.DIHEDRAL.0>
2.1627

>  <SCORE.INTRA.POLAR>
0

>  <SCORE.INTRA.POLAR.0>
0

>  <SCORE.INTRA.REPUL>
0

>  <SCORE.INTRA.REPUL.0>
0

>  <SCORE.INTRA.SOLV>
0.0591682

>  <SCORE.INTRA.SOLV.lig_0>
-5.95779

>  <SCORE.INTRA.VDW>
0.718182

>  <SCORE.INTRA.VDW.0>
3.81702

>  <SCORE.INTRA.norm>
0.0602832

>  <SCORE.RESTR>
0

>  <SCORE.RESTR.CAVITY>
0

>  <SCORE.RESTR.norm>
0

>  <SCORE.SYSTEM>
0

>  <SCORE.SYSTEM.CONST>
0

>  <SCORE.SYSTEM.DIHEDRAL>
0

>  <SCORE.SYSTEM.SOLV>
0

>  <SCORE.SYSTEM.norm>
0

>  <SCORE.heavy>
25

>  <SCORE.norm>
-1.88472

>  <RMSD>
1.908

$$$$
1q8n_lig
 OpenBabel11021811403D
libRbt.so/2013.1/901 2013/11/27
 25 27  0  0  0  0  0  0  0  0999 V2000
    1.0325    0.5366   -0.9142 C   0  0  0  0  0  0  0  0  0  0  0  0
    0.9793    1.9335   -1.7575 C   0  0  0  0  0  0  0  0  0  0  0  0
   -0.6765    0.6328    4.7859 N   0  0  0  0  0  0  0  0  0  0  0  0
    1.1491    2.0034   -3.0996 C   0  0  0  0  0  0  0  0  0  0  0  0
    2.7614   -4.7088   -3.2402 N   0  0  0  0  0  0  0  0  0  0  0  0
    1.0990    3.2930   -3.8263 C   0  0  0  0  0  0  0  0  0  0  0  0
    0.8770    4.4399   -3.1442 C   0  0  0  0  0  0  0  0  0  0  0  0
    0.6867    4.3872   -1.7135 C   0  0  0  0  0  0  0  0  0  0  0  0
    0.7359    3.2185   -1.0694 C   0  0  0  0  0  0  0  0  0  0  0  0
    0.5654    0.5577    0.6483 C   0  0  0  0  0  0  0  0  0  0  0  0
    0.8875   -0.4479    1.4882 C   0  0  0  0  0  0  0  0  0  0  0  0
    0.4695   -0.4453    2.9176 C   0  0  0  0  0  0  0  0  0  0  0  0
   -0.2564    0.5907    3.4165 C   0  0  0  0  0  0  0  0  0  0  0  0
   -0.6143    1.6986    2.5106 C   0  0  0  0  0  0  0  0  0  0  0  0
   -0.2315    1.6794    1.2262 C   0  0  0  0  0  0  0  0  0  0  0  0
    1.5458   -0.8805   -1.6051 C   0  0  0  0  0  0  0  0  0  0  0  0
    1.2985   -2.1870   -0.9026 C   0  0  0  0  0  0  0  0  0  0  0  0
    1.6775   -3.3635   -1.4091 C   0  0  0  0  0  0  0  0  0  0  0  0
    2.3689   -3.4404   -2.7014 C   0  0  0  0  0  0  0  0  0  0  0  0
    2.6211   -2.2961   -3.3705 C   0  0  0  0  0  0  0  0  0  0  0  0
    2.1983   -0.9680   -2.8117 C   0  0  0  0  0  0  0  0  0  0  0  0
   -1.1054    1.8439    5.4164 C   0  0  0  0  0  0  0  0  0  0  0  0
   -0.6790   -0.5605    5.5741 C   0  0  0  0  0  0  0  0  0  0  0  0
    2.1087   -5.9123   -2.8111 C   0  0  0  0  0  0  0  0  0  0  0  0
    3.8124   -4.8119   -4.2272 C   0  0  0  0  0  0  0  0  0  0  0  0
  1  2  1  0  0  0  0
  1 10  1  0  0  0  0
  1 16  1  0  0  0  0
  2  4  2  0  0  0  0
  2  9  1  0  0  0  0
  4  6  1  0  0  0  0
  6  7  2  0  0  0  0
  7  8  1  0  0  0  0
  8  9  2  0  0  0  0
 10 11  2  0  0  0  0
 10 15  1  0  0  0  0
 11 12  1  0  0  0  0
 12 13  2  0  0  0  0
 13  3  1  0  0  0  0
 13 14  1  0  0  0  0
 14 15  2  0  0  0  0
 16 17  2  0  0  0  0
 16 21  1  0  0  0  0
 17 18  1  0  0  0  0
 18 19  2  0  0  0  0
 19  5  1  0  0  0  0
 19 20  1  0  0  0  0
 20 21  2  0  0  0  0
 22  3  1  0  0  0  0
 23  3  1  0  0  0  0
 24  5  1  0  0  0  0
 25  5  1  0  0  0  0
M  END
>  <CHROM.1>
-169.83153802,-163.31964599,-166.57866899,162.37607999,22.01393499,1.01274226
-0.19233226,-0.38354452,-3.09045308,-1.22246001,2.55842656

>  <Name>
1q8n_lig

>  <RI>
0

>  <Rbt.Current_Directory>
/home/itssahil/PROJECTS/Mol_Feturizer/New_Systems/rnas/1q8n

>  <Rbt.Executable>
rbdock ($Id: //depot/dev/client3/rdock/2013.1/src/exe/rbdock.cxx#4 $)

>  <Rbt.Library>
libRbt.so (2013.1, Build901 2013/11/27)

>  <Rbt.Parameter_File>
/export/apps/rDock/src/rDock_2013.1_src/data/scripts/dock_solv.prm

>  <Rbt.Receptor>
prm/blind_docking_40.prm

>  <SCORE>
-49.1429

>  <SCORE.INTER>
-50.8934

>  <SCORE.INTER.CONST>
1

>  <SCORE.INTER.POLAR>
0

>  <SCORE.INTER.ROT>
5

>  <SCORE.INTER.SOLV>
9.65918

>  <SCORE.INTER.VDW>
-44.082

>  <SCORE.INTER.norm>
-2.03574

>  <SCORE.INTRA>
1.75054

>  <SCORE.INTRA.DIHEDRAL>
2.96897

>  <SCORE.INTRA.DIHEDRAL.0>
2.1627

>  <SCORE.INTRA.POLAR>
0

>  <SCORE.INTRA.POLAR.0>
0

>  <SCORE.INTRA.REPUL>
0

>  <SCORE.INTRA.REPUL.0>
0

>  <SCORE.INTRA.SOLV>
0.0674993

>  <SCORE.INTRA.SOLV.lig_0>
-5.95779

>  <SCORE.INTRA.VDW>
0.232306

>  <SCORE.INTRA.VDW.0>
3.81702

>  <SCORE.INTRA.norm>
0.0700216

>  <SCORE.RESTR>
0

>  <SCORE.RESTR.CAVITY>
0

>  <SCORE.RESTR.norm>
0

>  <SCORE.SYSTEM>
0

>  <SCORE.SYSTEM.CONST>
0

>  <SCORE.SYSTEM.DIHEDRAL>
0

>  <SCORE.SYSTEM.SOLV>
0

>  <SCORE.SYSTEM.norm>
0

>  <SCORE.heavy>
25

>  <SCORE.norm>
-1.96572

>  <RMSD>
1.909

$$$$
1q8n_lig
 OpenBabel11021811403D
libRbt.so/2013.1/901 2013/11/27
 25 27  0  0  0  0  0  0  0  0999 V2000
    0.9523    0.6301   -0.7892 C   0  0  0  0  0  0  0  0  0  0  0  0
    0.9382    2.0376   -1.6164 C   0  0  0  0  0  0  0  0  0  0  0  0
   -0.8318    0.6537    4.8887 N   0  0  0  0  0  0  0  0  0  0  0  0
    0.7337    3.2440   -1.0353 C   0  0  0  0  0  0  0  0  0  0  0  0
    2.6402   -4.6193   -3.1361 N   0  0  0  0  0  0  0  0  0  0  0  0
    0.7229    4.4979   -1.8237 C   0  0  0  0  0  0  0  0  0  0  0  0
    0.9228    4.4521   -3.1608 C   0  0  0  0  0  0  0  0  0  0  0  0
    1.1495    3.1767   -3.7995 C   0  0  0  0  0  0  0  0  0  0  0  0
    1.1550    2.0530   -3.0781 C   0  0  0  0  0  0  0  0  0  0  0  0
    0.4618    0.6417    0.7663 C   0  0  0  0  0  0  0  0  0  0  0  0
   -0.3336    1.6224    1.2415 C   0  0  0  0  0  0  0  0  0  0  0  0
   -0.7910    1.6491    2.6585 C   0  0  0  0  0  0  0  0  0  0  0  0
   -0.4121    0.6662    3.5185 C   0  0  0  0  0  0  0  0  0  0  0  0
    0.4558   -0.4140    3.0127 C   0  0  0  0  0  0  0  0  0  0  0  0
    0.8598   -0.4217    1.7347 C   0  0  0  0  0  0  0  0  0  0  0  0
    1.4492   -0.7882   -1.4893 C   0  0  0  0  0  0  0  0  0  0  0  0
    1.2993   -2.0839   -0.7407 C   0  0  0  0  0  0  0  0  0  0  0  0
    1.6705   -3.2612   -1.2512 C   0  0  0  0  0  0  0  0  0  0  0  0
    2.2556   -3.3497   -2.5942 C   0  0  0  0  0  0  0  0  0  0  0  0
    2.4178   -2.2153   -3.3065 C   0  0  0  0  0  0  0  0  0  0  0  0
    2.0029   -0.8865   -2.7435 C   0  0  0  0  0  0  0  0  0  0  0  0
   -0.8729   -0.5487    5.6640 C   0  0  0  0  0  0  0  0  0  0  0  0
   -1.2278    1.8688    5.5304 C   0  0  0  0  0  0  0  0  0  0  0  0
    3.6281   -4.6957   -4.1736 C   0  0  0  0  0  0  0  0  0  0  0  0
    2.0542   -5.8495   -2.6537 C   0  0  0  0  0  0  0  0  0  0  0  0
  1  2  1  0  0  0  0
  1 10  1  0  0  0  0
  1 16  1  0  0  0  0
  2  4  2  0  0  0  0
  2  9  1  0  0  0  0
  4  6  1  0  0  0  0
  6  7  2  0  0  0  0
  7  8  1  0  0  0  0
  8  9  2  0  0  0  0
 10 11  2  0  0  0  0
 10 15  1  0  0  0  0
 11 12  1  0  0  0  0
 12 13  2  0  0  0  0
 13  3  1  0  0  0  0
 13 14  1  0  0  0  0
 14 15  2  0  0  0  0
 16 17  2  0  0  0  0
 16 21  1  0  0  0  0
 17 18  1  0  0  0  0
 18 19  2  0  0  0  0
 19  5  1  0  0  0  0
 19 20  1  0  0  0  0
 20 21  2  0  0  0  0
 22  3  1  0  0  0  0
 23  3  1  0  0  0  0
 24  5  1  0  0  0  0
 25  5  1  0  0  0  0
M  END
>  <CHROM.1>
10.15948554,21.74602703,-173.11422451,156.76310524,-156.74116059,0.93084842
-0.14214555,-0.29379925,-3.09499901,-1.21975680,2.59376550

>  <Name>
1q8n_lig

>  <RI>
0

>  <Rbt.Current_Directory>
/home/itssahil/PROJECTS/Mol_Feturizer/New_Systems/rnas/1q8n

>  <Rbt.Executable>
rbdock ($Id: //depot/dev/client3/rdock/2013.1/src/exe/rbdock.cxx#4 $)

>  <Rbt.Library>
libRbt.so (2013.1, Build901 2013/11/27)

>  <Rbt.Parameter_File>
/export/apps/rDock/src/rDock_2013.1_src/data/scripts/dock_solv.prm

>  <Rbt.Receptor>
prm/blind_docking_20.prm

>  <SCORE>
-48.322

>  <SCORE.INTER>
-50.1485

>  <SCORE.INTER.CONST>
1

>  <SCORE.INTER.POLAR>
0

>  <SCORE.INTER.ROT>
5

>  <SCORE.INTER.SOLV>
9.58073

>  <SCORE.INTER.VDW>
-43.5592

>  <SCORE.INTER.norm>
-2.00594

>  <SCORE.INTRA>
1.82652

>  <SCORE.INTRA.DIHEDRAL>
3.9833

>  <SCORE.INTRA.DIHEDRAL.0>
2.1627

>  <SCORE.INTRA.POLAR>
0

>  <SCORE.INTRA.POLAR.0>
0

>  <SCORE.INTRA.REPUL>
0

>  <SCORE.INTRA.REPUL.0>
0

>  <SCORE.INTRA.SOLV>
0.0661903

>  <SCORE.INTRA.SOLV.lig_0>
-5.95779

>  <SCORE.INTRA.VDW>
-0.198231

>  <SCORE.INTRA.VDW.0>
3.81702

>  <SCORE.INTRA.norm>
0.0730606

>  <SCORE.RESTR>
0

>  <SCORE.RESTR.CAVITY>
0

>  <SCORE.RESTR.norm>
0

>  <SCORE.SYSTEM>
0

>  <SCORE.SYSTEM.CONST>
0

>  <SCORE.SYSTEM.DIHEDRAL>
0

>  <SCORE.SYSTEM.SOLV>
0

>  <SCORE.SYSTEM.norm>
0

>  <SCORE.heavy>
25

>  <SCORE.norm>
-1.93288

>  <RMSD>
1.910

$$$$
1q8n_lig
 OpenBabel11021811413D
libRbt.so/2013.1/901 2013/11/27
 25 27  0  0  0  0  0  0  0  0999 V2000
    0.5365    0.8661   -0.2680 C   0  0  0  0  0  0  0  0  0  0  0  0
    0.6827    2.0621   -1.3696 C   0  0  0  0  0  0  0  0  0  0  0  0
    2.0182   -4.6593   -1.9102 N   0  0  0  0  0  0  0  0  0  0  0  0
    0.8744    1.8409   -2.6921 C   0  0  0  0  0  0  0  0  0  0  0  0
   -1.2878    1.7466    5.3720 N   0  0  0  0  0  0  0  0  0  0  0  0
    1.0079    2.9555   -3.6584 C   0  0  0  0  0  0  0  0  0  0  0  0
    0.9370    4.2341   -3.2225 C   0  0  0  0  0  0  0  0  0  0  0  0
    0.7264    4.4924   -1.8172 C   0  0  0  0  0  0  0  0  0  0  0  0
    0.6094    3.4789   -0.9556 C   0  0  0  0  0  0  0  0  0  0  0  0
    0.9429   -0.6496   -0.7128 C   0  0  0  0  0  0  0  0  0  0  0  0
    0.8937   -1.6730    0.1650 C   0  0  0  0  0  0  0  0  0  0  0  0
    1.2611   -3.0629   -0.2235 C   0  0  0  0  0  0  0  0  0  0  0  0
    1.6583   -3.3357   -1.4952 C   0  0  0  0  0  0  0  0  0  0  0  0
    1.7149   -2.2272   -2.4668 C   0  0  0  0  0  0  0  0  0  0  0  0
    1.3825   -0.9816   -2.0998 C   0  0  0  0  0  0  0  0  0  0  0  0
   -0.0100    1.1584    1.2698 C   0  0  0  0  0  0  0  0  0  0  0  0
    0.3678    0.2255    2.3872 C   0  0  0  0  0  0  0  0  0  0  0  0
   -0.0309    0.4095    3.6488 C   0  0  0  0  0  0  0  0  0  0  0  0
   -0.8750    1.5532    4.0135 C   0  0  0  0  0  0  0  0  0  0  0  0
   -1.2478    2.4177    3.0471 C   0  0  0  0  0  0  0  0  0  0  0  0
   -0.8045    2.2221    1.6258 C   0  0  0  0  0  0  0  0  0  0  0  0
    1.6700   -5.8198   -1.1483 C   0  0  0  0  0  0  0  0  0  0  0  0
    2.7493   -4.8586   -3.1230 C   0  0  0  0  0  0  0  0  0  0  0  0
   -2.0345    2.9138    5.7439 C   0  0  0  0  0  0  0  0  0  0  0  0
   -0.9724    0.7775    6.3972 C   0  0  0  0  0  0  0  0  0  0  0  0
  1  2  1  0  0  0  0
  1 10  1  0  0  0  0
  1 16  1  0  0  0  0
  2  4  2  0  0  0  0
  2  9  1  0  0  0  0
  4  6  1  0  0  0  0
  6  7  2  0  0  0  0
  7  8  1  0  0  0  0
  8  9  2  0  0  0  0
 10 11  2  0  0  0  0
 10 15  1  0  0  0  0
 11 12  1  0  0  0  0
 12 13  2  0  0  0  0
 13  3  1  0  0  0  0
 13 14  1  0  0  0  0
 14 15  2  0  0  0  0
 16 17  2  0  0  0  0
 16 21  1  0  0  0  0
 17 18  1  0  0  0  0
 18 19  2  0  0  0  0
 19  5  1  0  0  0  0
 19 20  1  0  0  0  0
 20 21  2  0  0  0  0
 22  3  1  0  0  0  0
 23  3  1  0  0  0  0
 24  5  1  0  0  0  0
 25  5  1  0  0  0  0
M  END
>  <CHROM.1>
13.06418231,177.42754306,-155.56165134,16.26960145,175.65305688,0.50655232
0.18605441,0.30951606,-0.14097619,1.23414926,-0.54863508

>  <Name>
1q8n_lig

>  <RI>
0

>  <Rbt.Current_Directory>
/home/itssahil/PROJECTS/Mol_Feturizer/New_Systems/rnas/1q8n

>  <Rbt.Executable>
rbdock ($Id: //depot/dev/client3/rdock/2013.1/src/exe/rbdock.cxx#4 $)

>  <Rbt.Library>
libRbt.so (2013.1, Build901 2013/11/27)

>  <Rbt.Parameter_File>
/export/apps/rDock/src/rDock_2013.1_src/data/scripts/dock_solv.prm

>  <Rbt.Receptor>
prm/pocket_docking_6.prm

>  <SCORE>
-47.8888

>  <SCORE.INTER>
-49.413

>  <SCORE.INTER.CONST>
1

>  <SCORE.INTER.POLAR>
0

>  <SCORE.INTER.ROT>
5

>  <SCORE.INTER.SOLV>
9.61247

>  <SCORE.INTER.VDW>
-43.0795

>  <SCORE.INTER.norm>
-1.97652

>  <SCORE.INTRA>
1.52415

>  <SCORE.INTRA.DIHEDRAL>
1.07769

>  <SCORE.INTRA.DIHEDRAL.0>
2.1627

>  <SCORE.INTRA.POLAR>
0

>  <SCORE.INTRA.POLAR.0>
0

>  <SCORE.INTRA.REPUL>
0

>  <SCORE.INTRA.REPUL.0>
0

>  <SCORE.INTRA.SOLV>
0.0651077

>  <SCORE.INTRA.SOLV.lig_0>
-5.95779

>  <SCORE.INTRA.VDW>
0.952752

>  <SCORE.INTRA.VDW.0>
3.81702

>  <SCORE.INTRA.norm>
0.060966

>  <SCORE.RESTR>
0

>  <SCORE.RESTR.CAVITY>
0

>  <SCORE.RESTR.norm>
0

>  <SCORE.SYSTEM>
0

>  <SCORE.SYSTEM.CONST>
0

>  <SCORE.SYSTEM.DIHEDRAL>
0

>  <SCORE.SYSTEM.SOLV>
0

>  <SCORE.SYSTEM.norm>
0

>  <SCORE.heavy>
25

>  <SCORE.norm>
-1.91555

>  <RMSD>
1.912

$$$$
1q8n_lig
 OpenBabel11021811403D
libRbt.so/2013.1/901 2013/11/27
 25 27  0  0  0  0  0  0  0  0999 V2000
    0.9575    0.6388   -0.7814 C   0  0  0  0  0  0  0  0  0  0  0  0
    0.9432    2.0454   -1.6101 C   0  0  0  0  0  0  0  0  0  0  0  0
   -0.8202    0.6698    4.8985 N   0  0  0  0  0  0  0  0  0  0  0  0
    0.7150    3.2500   -1.0342 C   0  0  0  0  0  0  0  0  0  0  0  0
    2.6393   -4.6142   -3.1244 N   0  0  0  0  0  0  0  0  0  0  0  0
    0.7049    4.5031   -1.8239 C   0  0  0  0  0  0  0  0  0  0  0  0
    0.9296    4.4583   -3.1571 C   0  0  0  0  0  0  0  0  0  0  0  0
    1.1819    3.1849   -3.7902 C   0  0  0  0  0  0  0  0  0  0  0  0
    1.1865    2.0620   -3.0677 C   0  0  0  0  0  0  0  0  0  0  0  0
    0.4691    0.6525    0.7747 C   0  0  0  0  0  0  0  0  0  0  0  0
   -0.2769    1.6644    1.2647 C   0  0  0  0  0  0  0  0  0  0  0  0
   -0.7316    1.6935    2.6825 C   0  0  0  0  0  0  0  0  0  0  0  0
   -0.4011    0.6810    3.5281 C   0  0  0  0  0  0  0  0  0  0  0  0
    0.4123   -0.4334    3.0061 C   0  0  0  0  0  0  0  0  0  0  0  0
    0.8147   -0.4428    1.7276 C   0  0  0  0  0  0  0  0  0  0  0  0
    1.4527   -0.7806   -1.4804 C   0  0  0  0  0  0  0  0  0  0  0  0
    1.3023   -2.0754   -0.7305 C   0  0  0  0  0  0  0  0  0  0  0  0
    1.6721   -3.2535   -1.2402 C   0  0  0  0  0  0  0  0  0  0  0  0
    2.2561   -3.3438   -2.5835 C   0  0  0  0  0  0  0  0  0  0  0  0
    2.4189   -2.2102   -3.2969 C   0  0  0  0  0  0  0  0  0  0  0  0
    2.0055   -0.8805   -2.7350 C   0  0  0  0  0  0  0  0  0  0  0  0
   -0.8620   -0.5321    5.6745 C   0  0  0  0  0  0  0  0  0  0  0  0
   -1.2147    1.8857    5.5396 C   0  0  0  0  0  0  0  0  0  0  0  0
    3.6250   -4.6923   -4.1639 C   0  0  0  0  0  0  0  0  0  0  0  0
    2.0540   -5.8436   -2.6391 C   0  0  0  0  0  0  0  0  0  0  0  0
  1  2  1  0  0  0  0
  1 10  1  0  0  0  0
  1 16  1  0  0  0  0
  2  4  2  0  0  0  0
  2  9  1  0  0  0  0
  4  6  1  0  0  0  0
  6  7  2  0  0  0  0
  7  8  1  0  0  0  0
  8  9  2  0  0  0  0
 10 11  2  0  0  0  0
 10 15  1  0  0  0  0
 11 12  1  0  0  0  0
 12 13  2  0  0  0  0
 13  3  1  0  0  0  0
 13 14  1  0  0  0  0
 14 15  2  0  0  0  0
 16 17  2  0  0  0  0
 16 21  1  0  0  0  0
 17 18  1  0  0  0  0
 18 19  2  0  0  0  0
 19  5  1  0  0  0  0
 19 20  1  0  0  0  0
 20 21  2  0  0  0  0
 22  3  1  0  0  0  0
 23  3  1  0  0  0  0
 24  5  1  0  0  0  0
 25  5  1  0  0  0  0
M  END
>  <CHROM.1>
8.85912005,18.82139794,-173.07361058,159.65699493,-156.83330512,0.93619337
-0.13301950,-0.28515737,-3.09050527,-1.22090559,2.59697021

>  <Name>
1q8n_lig

>  <RI>
0

>  <Rbt.Current_Directory>
/home/itssahil/PROJECTS/Mol_Feturizer/New_Systems/rnas/1q8n

>  <Rbt.Executable>
rbdock ($Id: //depot/dev/client3/rdock/2013.1/src/exe/rbdock.cxx#4 $)

>  <Rbt.Library>
libRbt.so (2013.1, Build901 2013/11/27)

>  <Rbt.Parameter_File>
/export/apps/rDock/src/rDock_2013.1_src/data/scripts/dock_solv.prm

>  <Rbt.Receptor>
prm/blind_docking_60.prm

>  <SCORE>
-48.346

>  <SCORE.INTER>
-50.2468

>  <SCORE.INTER.CONST>
1

>  <SCORE.INTER.POLAR>
0

>  <SCORE.INTER.ROT>
5

>  <SCORE.INTER.SOLV>
9.58354

>  <SCORE.INTER.VDW>
-43.6257

>  <SCORE.INTER.norm>
-2.00987

>  <SCORE.INTRA>
1.90081

>  <SCORE.INTRA.DIHEDRAL>
3.52305

>  <SCORE.INTRA.DIHEDRAL.0>
2.1627

>  <SCORE.INTRA.POLAR>
0

>  <SCORE.INTRA.POLAR.0>
0

>  <SCORE.INTRA.REPUL>
0

>  <SCORE.INTRA.REPUL.0>
0

>  <SCORE.INTRA.SOLV>
0.0689585

>  <SCORE.INTRA.SOLV.lig_0>
-5.95779

>  <SCORE.INTRA.VDW>
0.104808

>  <SCORE.INTRA.VDW.0>
3.81702

>  <SCORE.INTRA.norm>
0.0760325

>  <SCORE.RESTR>
0

>  <SCORE.RESTR.CAVITY>
0

>  <SCORE.RESTR.norm>
0

>  <SCORE.SYSTEM>
0

>  <SCORE.SYSTEM.CONST>
0

>  <SCORE.SYSTEM.DIHEDRAL>
0

>  <SCORE.SYSTEM.SOLV>
0

>  <SCORE.SYSTEM.norm>
0

>  <SCORE.heavy>
25

>  <SCORE.norm>
-1.93384

>  <RMSD>
1.914

$$$$
1q8n_lig
 OpenBabel11021811413D
libRbt.so/2013.1/901 2013/11/27
 25 27  0  0  0  0  0  0  0  0999 V2000
    0.8640    0.5841   -0.6209 C   0  0  0  0  0  0  0  0  0  0  0  0
    0.8540    1.9393   -1.5314 C   0  0  0  0  0  0  0  0  0  0  0  0
    2.6467   -4.5103   -3.1290 N   0  0  0  0  0  0  0  0  0  0  0  0
    0.7506    3.1868   -1.0139 C   0  0  0  0  0  0  0  0  0  0  0  0
   -0.9876    0.8217    5.0736 N   0  0  0  0  0  0  0  0  0  0  0  0
    0.7395    4.3909   -1.8763 C   0  0  0  0  0  0  0  0  0  0  0  0
    0.8360    4.2560   -3.2189 C   0  0  0  0  0  0  0  0  0  0  0  0
    0.9538    2.9352   -3.7912 C   0  0  0  0  0  0  0  0  0  0  0  0
    0.9608    1.8572   -3.0031 C   0  0  0  0  0  0  0  0  0  0  0  0
    1.3525   -0.8096   -1.3131 C   0  0  0  0  0  0  0  0  0  0  0  0
    1.8395   -0.8325   -2.5711 C   0  0  0  0  0  0  0  0  0  0  0  0
    2.2901   -2.0955   -3.2190 C   0  0  0  0  0  0  0  0  0  0  0  0
    2.2217   -3.2735   -2.5430 C   0  0  0  0  0  0  0  0  0  0  0  0
    1.6934   -3.2638   -1.1657 C   0  0  0  0  0  0  0  0  0  0  0  0
    1.2904   -2.1182   -0.5984 C   0  0  0  0  0  0  0  0  0  0  0  0
    0.3931    0.5976    0.9686 C   0  0  0  0  0  0  0  0  0  0  0  0
   -0.4476    1.7306    1.4895 C   0  0  0  0  0  0  0  0  0  0  0  0
   -0.8679    1.7965    2.7557 C   0  0  0  0  0  0  0  0  0  0  0  0
   -0.5221    0.7461    3.7205 C   0  0  0  0  0  0  0  0  0  0  0  0
    0.2358   -0.2904    3.3061 C   0  0  0  0  0  0  0  0  0  0  0  0
    0.7128   -0.3759    1.8848 C   0  0  0  0  0  0  0  0  0  0  0  0
    2.1129   -5.7733   -2.7185 C   0  0  0  0  0  0  0  0  0  0  0  0
    3.6356   -4.5140   -4.1621 C   0  0  0  0  0  0  0  0  0  0  0  0
   -1.3605    2.0847    5.6428 C   0  0  0  0  0  0  0  0  0  0  0  0
   -1.0998   -0.3621    5.8956 C   0  0  0  0  0  0  0  0  0  0  0  0
  1  2  1  0  0  0  0
  1 10  1  0  0  0  0
  1 16  1  0  0  0  0
  2  4  2  0  0  0  0
  2  9  1  0  0  0  0
  4  6  1  0  0  0  0
  6  7  2  0  0  0  0
  7  8  1  0  0  0  0
  8  9  2  0  0  0  0
 10 11  2  0  0  0  0
 10 15  1  0  0  0  0
 11 12  1  0  0  0  0
 12 13  2  0  0  0  0
 13  3  1  0  0  0  0
 13 14  1  0  0  0  0
 14 15  2  0  0  0  0
 16 17  2  0  0  0  0
 16 21  1  0  0  0  0
 17 18  1  0  0  0  0
 18 19  2  0  0  0  0
 19  5  1  0  0  0  0
 19 20  1  0  0  0  0
 20 21  2  0  0  0  0
 22  3  1  0  0  0  0
 23  3  1  0  0  0  0
 24  5  1  0  0  0  0
 25  5  1  0  0  0  0
M  END
>  <CHROM.1>
-165.32525943,5.29029102,19.14357907,-153.70334686,-22.64889317,0.84303933
-0.11174629,-0.18970955,0.02761923,1.21448965,-0.58666764

>  <Name>
1q8n_lig

>  <RI>
0

>  <Rbt.Current_Directory>
/home/itssahil/PROJECTS/Mol_Feturizer/New_Systems/rnas/1q8n

>  <Rbt.Executable>
rbdock ($Id: //depot/dev/client3/rdock/2013.1/src/exe/rbdock.cxx#4 $)

>  <Rbt.Library>
libRbt.so (2013.1, Build901 2013/11/27)

>  <Rbt.Parameter_File>
/export/apps/rDock/src/rDock_2013.1_src/data/scripts/dock_solv.prm

>  <Rbt.Receptor>
prm/pocket_docking_8.prm

>  <SCORE>
-48.0115

>  <SCORE.INTER>
-50.1102

>  <SCORE.INTER.CONST>
1

>  <SCORE.INTER.POLAR>
0

>  <SCORE.INTER.ROT>
5

>  <SCORE.INTER.SOLV>
9.17727

>  <SCORE.INTER.VDW>
-43.3992

>  <SCORE.INTER.norm>
-2.00441

>  <SCORE.INTRA>
2.09876

>  <SCORE.INTRA.DIHEDRAL>
4.40836

>  <SCORE.INTRA.DIHEDRAL.0>
2.1627

>  <SCORE.INTRA.POLAR>
0

>  <SCORE.INTRA.POLAR.0>
0

>  <SCORE.INTRA.REPUL>
0

>  <SCORE.INTRA.REPUL.0>
0

>  <SCORE.INTRA.SOLV>
0.0666418

>  <SCORE.INTRA.SOLV.lig_0>
-5.95779

>  <SCORE.INTRA.VDW>
-0.138741

>  <SCORE.INTRA.VDW.0>
3.81702

>  <SCORE.INTRA.norm>
0.0839505

>  <SCORE.RESTR>
0

>  <SCORE.RESTR.CAVITY>
0

>  <SCORE.RESTR.norm>
0

>  <SCORE.SYSTEM>
0

>  <SCORE.SYSTEM.CONST>
0

>  <SCORE.SYSTEM.DIHEDRAL>
0

>  <SCORE.SYSTEM.SOLV>
0

>  <SCORE.SYSTEM.norm>
0

>  <SCORE.heavy>
25

>  <SCORE.norm>
-1.92046

>  <RMSD>
1.916

$$$$
1q8n_lig
 OpenBabel11021811403D
libRbt.so/2013.1/901 2013/11/27
 25 27  0  0  0  0  0  0  0  0999 V2000
    0.8354    0.7758   -0.6190 C   0  0  0  0  0  0  0  0  0  0  0  0
    0.8712    2.1191   -1.5463 C   0  0  0  0  0  0  0  0  0  0  0  0
    2.6810   -4.3453   -3.0251 N   0  0  0  0  0  0  0  0  0  0  0  0
    0.7204    3.3718   -1.0535 C   0  0  0  0  0  0  0  0  0  0  0  0
   -0.9400    0.7236    5.1045 N   0  0  0  0  0  0  0  0  0  0  0  0
    0.7535    4.5646   -1.9309 C   0  0  0  0  0  0  0  0  0  0  0  0
    0.9402    4.4139   -3.2622 C   0  0  0  0  0  0  0  0  0  0  0  0
    1.1099    3.0873   -3.8076 C   0  0  0  0  0  0  0  0  0  0  0  0
    1.0762    2.0196   -3.0064 C   0  0  0  0  0  0  0  0  0  0  0  0
    1.3405   -0.6301   -1.2736 C   0  0  0  0  0  0  0  0  0  0  0  0
    1.1341   -1.8072   -0.6474 C   0  0  0  0  0  0  0  0  0  0  0  0
    1.5883   -3.1002   -1.2301 C   0  0  0  0  0  0  0  0  0  0  0  0
    2.2299   -3.1227   -2.4289 C   0  0  0  0  0  0  0  0  0  0  0  0
    2.4607   -1.8437   -3.1266 C   0  0  0  0  0  0  0  0  0  0  0  0
    2.0469   -0.6886   -2.5869 C   0  0  0  0  0  0  0  0  0  0  0  0
    0.3024    0.8132    0.9505 C   0  0  0  0  0  0  0  0  0  0  0  0
    0.6876   -0.2901    1.8971 C   0  0  0  0  0  0  0  0  0  0  0  0
    0.2998   -0.3146    3.1752 C   0  0  0  0  0  0  0  0  0  0  0  0
   -0.5389    0.7547    3.7292 C   0  0  0  0  0  0  0  0  0  0  0  0
   -0.9180    1.7658    2.9203 C   0  0  0  0  0  0  0  0  0  0  0  0
   -0.4870    1.8048    1.4823 C   0  0  0  0  0  0  0  0  0  0  0  0
    3.6669   -4.3710   -4.0623 C   0  0  0  0  0  0  0  0  0  0  0  0
    2.1468   -5.5980   -2.5886 C   0  0  0  0  0  0  0  0  0  0  0  0
   -1.3338    1.9307    5.7725 C   0  0  0  0  0  0  0  0  0  0  0  0
   -0.9652   -0.5140    5.8509 C   0  0  0  0  0  0  0  0  0  0  0  0
  1  2  1  0  0  0  0
  1 10  1  0  0  0  0
  1 16  1  0  0  0  0
  2  4  2  0  0  0  0
  2  9  1  0  0  0  0
  4  6  1  0  0  0  0
  6  7  2  0  0  0  0
  7  8  1  0  0  0  0
  8  9  2  0  0  0  0
 10 11  2  0  0  0  0
 10 15  1  0  0  0  0
 11 12  1  0  0  0  0
 12 13  2  0  0  0  0
 13  3  1  0  0  0  0
 13 14  1  0  0  0  0
 14 15  2  0  0  0  0
 16 17  2  0  0  0  0
 16 21  1  0  0  0  0
 17 18  1  0  0  0  0
 18 19  2  0  0  0  0
 19  5  1  0  0  0  0
 19 20  1  0  0  0  0
 20 21  2  0  0  0  0
 22  3  1  0  0  0  0
 23  3  1  0  0  0  0
 24  5  1  0  0  0  0
 25  5  1  0  0  0  0
M  END
>  <CHROM.1>
-167.18482859,-168.95885457,-160.12638120,-161.80882792,157.96414457,0.86903397
-0.00294689,-0.17102769,3.09065249,-1.20539117,2.57563370

>  <Name>
1q8n_lig

>  <RI>
0

>  <Rbt.Current_Directory>
/home/itssahil/PROJECTS/Mol_Feturizer/New_Systems/rnas/1q8n

>  <Rbt.Executable>
rbdock ($Id: //depot/dev/client3/rdock/2013.1/src/exe/rbdock.cxx#4 $)

>  <Rbt.Library>
libRbt.so (2013.1, Build901 2013/11/27)

>  <Rbt.Parameter_File>
/export/apps/rDock/src/rDock_2013.1_src/data/scripts/dock_solv.prm

>  <Rbt.Receptor>
prm/blind_docking_80.prm

>  <SCORE>
-47.4017

>  <SCORE.INTER>
-49.2228

>  <SCORE.INTER.CONST>
1

>  <SCORE.INTER.POLAR>
0

>  <SCORE.INTER.ROT>
5

>  <SCORE.INTER.SOLV>
9.44891

>  <SCORE.INTER.VDW>
-42.8982

>  <SCORE.INTER.norm>
-1.96891

>  <SCORE.INTRA>
1.8211

>  <SCORE.INTRA.DIHEDRAL>
3.05049

>  <SCORE.INTRA.DIHEDRAL.0>
2.1627

>  <SCORE.INTRA.POLAR>
0

>  <SCORE.INTRA.POLAR.0>
0

>  <SCORE.INTRA.REPUL>
0

>  <SCORE.INTRA.REPUL.0>
0

>  <SCORE.INTRA.SOLV>
0.0656696

>  <SCORE.INTRA.SOLV.lig_0>
-5.95779

>  <SCORE.INTRA.VDW>
0.263018

>  <SCORE.INTRA.VDW.0>
3.81702

>  <SCORE.INTRA.norm>
0.0728439

>  <SCORE.RESTR>
0

>  <SCORE.RESTR.CAVITY>
0

>  <SCORE.RESTR.norm>
0

>  <SCORE.SYSTEM>
0

>  <SCORE.SYSTEM.CONST>
0

>  <SCORE.SYSTEM.DIHEDRAL>
0

>  <SCORE.SYSTEM.SOLV>
0

>  <SCORE.SYSTEM.norm>
0

>  <SCORE.heavy>
25

>  <SCORE.norm>
-1.89607

>  <RMSD>
1.920

$$$$
1q8n_lig
 OpenBabel11021811413D
libRbt.so/2013.1/901 2013/11/27
 25 27  0  0  0  0  0  0  0  0999 V2000
    0.8488    0.8135   -0.6260 C   0  0  0  0  0  0  0  0  0  0  0  0
    0.8771    2.1621   -1.5458 C   0  0  0  0  0  0  0  0  0  0  0  0
    2.7067   -4.3043   -3.0296 N   0  0  0  0  0  0  0  0  0  0  0  0
    0.7273    3.4117   -1.0450 C   0  0  0  0  0  0  0  0  0  0  0  0
   -0.9156    0.7220    5.1004 N   0  0  0  0  0  0  0  0  0  0  0  0
    0.7535    4.6096   -1.9158 C   0  0  0  0  0  0  0  0  0  0  0  0
    0.9325    4.4667   -3.2490 C   0  0  0  0  0  0  0  0  0  0  0  0
    1.1010    3.1436   -3.8030 C   0  0  0  0  0  0  0  0  0  0  0  0
    1.0736    2.0713   -3.0077 C   0  0  0  0  0  0  0  0  0  0  0  0
    1.3587   -0.5865   -1.2894 C   0  0  0  0  0  0  0  0  0  0  0  0
    2.0261   -0.6026   -2.4619 C   0  0  0  0  0  0  0  0  0  0  0  0
    2.4991   -1.8712   -3.0823 C   0  0  0  0  0  0  0  0  0  0  0  0
    2.2668   -3.0617   -2.4675 C   0  0  0  0  0  0  0  0  0  0  0  0
    1.5402   -3.0598   -1.1837 C   0  0  0  0  0  0  0  0  0  0  0  0
    1.1199   -1.9089   -0.6403 C   0  0  0  0  0  0  0  0  0  0  0  0
    0.3184    0.8398    0.9446 C   0  0  0  0  0  0  0  0  0  0  0  0
    0.7129   -0.2653    1.8852 C   0  0  0  0  0  0  0  0  0  0  0  0
    0.3277   -0.2985    3.1638 C   0  0  0  0  0  0  0  0  0  0  0  0
   -0.5173    0.7623    3.7245 C   0  0  0  0  0  0  0  0  0  0  0  0
   -0.9049    1.7747    2.9211 C   0  0  0  0  0  0  0  0  0  0  0  0
   -0.4768    1.8235    1.4826 C   0  0  0  0  0  0  0  0  0  0  0  0
    3.6940   -4.3678   -4.0639 C   0  0  0  0  0  0  0  0  0  0  0  0
    2.1594   -5.5394   -2.5604 C   0  0  0  0  0  0  0  0  0  0  0  0
   -1.2882    1.9276    5.7831 C   0  0  0  0  0  0  0  0  0  0  0  0
   -0.9593   -0.5235    5.8326 C   0  0  0  0  0  0  0  0  0  0  0  0
  1  2  1  0  0  0  0
  1 10  1  0  0  0  0
  1 16  1  0  0  0  0
  2  4  2  0  0  0  0
  2  9  1  0  0  0  0
  4  6  1  0  0  0  0
  6  7  2  0  0  0  0
  7  8  1  0  0  0  0
  8  9  2  0  0  0  0
 10 11  2  0  0  0  0
 10 15  1  0  0  0  0
 11 12  1  0  0  0  0
 12 13  2  0  0  0  0
 13  3  1  0  0  0  0
 13 14  1  0  0  0  0
 14 15  2  0  0  0  0
 16 17  2  0  0  0  0
 16 21  1  0  0  0  0
 17 18  1  0  0  0  0
 18 19  2  0  0  0  0
 19  5  1  0  0  0  0
 19 20  1  0  0  0  0
 20 21  2  0  0  0  0
 22  3  1  0  0  0  0
 23  3  1  0  0  0  0
 24  5  1  0  0  0  0
 25  5  1  0  0  0  0
M  END
>  <CHROM.1>
-166.89823630,12.73592135,-159.97499376,16.41637463,156.58631184,0.88017718
0.02132809,-0.16366209,0.05213742,1.20500135,-0.56899064

>  <Name>
1q8n_lig

>  <RI>
0

>  <Rbt.Current_Directory>
/home/itssahil/PROJECTS/Mol_Feturizer/New_Systems/rnas/1q8n

>  <Rbt.Executable>
rbdock ($Id: //depot/dev/client3/rdock/2013.1/src/exe/rbdock.cxx#4 $)

>  <Rbt.Library>
libRbt.so (2013.1, Build901 2013/11/27)

>  <Rbt.Parameter_File>
/export/apps/rDock/src/rDock_2013.1_src/data/scripts/dock_solv.prm

>  <Rbt.Receptor>
prm/pocket_docking_6.prm

>  <SCORE>
-47.2211

>  <SCORE.INTER>
-48.9778

>  <SCORE.INTER.CONST>
1

>  <SCORE.INTER.POLAR>
0

>  <SCORE.INTER.ROT>
5

>  <SCORE.INTER.SOLV>
9.48978

>  <SCORE.INTER.VDW>
-42.7484

>  <SCORE.INTER.norm>
-1.95911

>  <SCORE.INTRA>
1.75667

>  <SCORE.INTRA.DIHEDRAL>
3.0436

>  <SCORE.INTRA.DIHEDRAL.0>
2.1627

>  <SCORE.INTRA.POLAR>
0

>  <SCORE.INTRA.POLAR.0>
0

>  <SCORE.INTRA.REPUL>
0

>  <SCORE.INTRA.REPUL.0>
0

>  <SCORE.INTRA.SOLV>
0.0643049

>  <SCORE.INTRA.SOLV.lig_0>
-5.95779

>  <SCORE.INTRA.VDW>
0.202715

>  <SCORE.INTRA.VDW.0>
3.81702

>  <SCORE.INTRA.norm>
0.0702667

>  <SCORE.RESTR>
0

>  <SCORE.RESTR.CAVITY>
0

>  <SCORE.RESTR.norm>
0

>  <SCORE.SYSTEM>
0

>  <SCORE.SYSTEM.CONST>
0

>  <SCORE.SYSTEM.DIHEDRAL>
0

>  <SCORE.SYSTEM.SOLV>
0

>  <SCORE.SYSTEM.norm>
0

>  <SCORE.heavy>
25

>  <SCORE.norm>
-1.88884

>  <RMSD>
1.923

$$$$
1q8n_lig
 OpenBabel11021811403D
libRbt.so/2013.1/901 2013/11/27
 25 27  0  0  0  0  0  0  0  0999 V2000
    1.0578    0.5820   -0.8926 C   0  0  0  0  0  0  0  0  0  0  0  0
    1.0189    1.9927   -1.7135 C   0  0  0  0  0  0  0  0  0  0  0  0
   -0.7744    0.5785    4.7699 N   0  0  0  0  0  0  0  0  0  0  0  0
    1.2235    2.0862   -3.0493 C   0  0  0  0  0  0  0  0  0  0  0  0
    2.8361   -4.6189   -3.2804 N   0  0  0  0  0  0  0  0  0  0  0  0
    1.1852    3.3877   -3.7553 C   0  0  0  0  0  0  0  0  0  0  0  0
    0.9388    4.5217   -3.0601 C   0  0  0  0  0  0  0  0  0  0  0  0
    0.7111    4.4438   -1.6360 C   0  0  0  0  0  0  0  0  0  0  0  0
    0.7501    3.2646   -1.0106 C   0  0  0  0  0  0  0  0  0  0  0  0
    0.5571    0.5758    0.6596 C   0  0  0  0  0  0  0  0  0  0  0  0
    0.8895   -0.4278    1.4977 C   0  0  0  0  0  0  0  0  0  0  0  0
    0.4413   -0.4500    2.9177 C   0  0  0  0  0  0  0  0  0  0  0  0
   -0.3241    0.5607    3.4096 C   0  0  0  0  0  0  0  0  0  0  0  0
   -0.6938    1.6662    2.5055 C   0  0  0  0  0  0  0  0  0  0  0  0
   -0.2833    1.6694    1.2296 C   0  0  0  0  0  0  0  0  0  0  0  0
    1.5899   -0.8220   -1.5958 C   0  0  0  0  0  0  0  0  0  0  0  0
    1.2427   -2.1470   -0.9750 C   0  0  0  0  0  0  0  0  0  0  0  0
    1.6315   -3.3139   -1.4962 C   0  0  0  0  0  0  0  0  0  0  0  0
    2.4337   -3.3611   -2.7243 C   0  0  0  0  0  0  0  0  0  0  0  0
    2.7780   -2.1997   -3.3184 C   0  0  0  0  0  0  0  0  0  0  0  0
    2.3453   -0.8820   -2.7425 C   0  0  0  0  0  0  0  0  0  0  0  0
   -0.8391   -0.6074    5.5687 C   0  0  0  0  0  0  0  0  0  0  0  0
   -1.1782    1.8085    5.3775 C   0  0  0  0  0  0  0  0  0  0  0  0
    3.9183   -4.6833   -4.2201 C   0  0  0  0  0  0  0  0  0  0  0  0
    2.1737   -5.8492   -2.9101 C   0  0  0  0  0  0  0  0  0  0  0  0
  1  2  1  0  0  0  0
  1 10  1  0  0  0  0
  1 16  1  0  0  0  0
  2  4  2  0  0  0  0
  2  9  1  0  0  0  0
  4  6  1  0  0  0  0
  6  7  2  0  0  0  0
  7  8  1  0  0  0  0
  8  9  2  0  0  0  0
 10 11  2  0  0  0  0
 10 15  1  0  0  0  0
 11 12  1  0  0  0  0
 12 13  2  0  0  0  0
 13  3  1  0  0  0  0
 13 14  1  0  0  0  0
 14 15  2  0  0  0  0
 16 17  2  0  0  0  0
 16 21  1  0  0  0  0
 17 18  1  0  0  0  0
 18 19  2  0  0  0  0
 19  5  1  0  0  0  0
 19 20  1  0  0  0  0
 20 21  2  0  0  0  0
 22  3  1  0  0  0  0
 23  3  1  0  0  0  0
 24  5  1  0  0  0  0
 25  5  1  0  0  0  0
M  END
>  <CHROM.1>
-170.15219672,-161.78534637,-162.01225179,-20.72266992,-161.56225285,1.02460109
-0.15341700,-0.37772948,-3.05484455,-1.20327360,2.60912420

>  <Name>
1q8n_lig

>  <RI>
0

>  <Rbt.Current_Directory>
/home/itssahil/PROJECTS/Mol_Feturizer/New_Systems/rnas/1q8n

>  <Rbt.Executable>
rbdock ($Id: //depot/dev/client3/rdock/2013.1/src/exe/rbdock.cxx#4 $)

>  <Rbt.Library>
libRbt.so (2013.1, Build901 2013/11/27)

>  <Rbt.Parameter_File>
/export/apps/rDock/src/rDock_2013.1_src/data/scripts/dock_solv.prm

>  <Rbt.Receptor>
prm/pocket_docking_4.prm

>  <SCORE>
-49.0966

>  <SCORE.INTER>
-50.7027

>  <SCORE.INTER.CONST>
1

>  <SCORE.INTER.POLAR>
0

>  <SCORE.INTER.ROT>
5

>  <SCORE.INTER.SOLV>
9.85918

>  <SCORE.INTER.VDW>
-44.0215

>  <SCORE.INTER.norm>
-2.02811

>  <SCORE.INTRA>
1.60605

>  <SCORE.INTRA.DIHEDRAL>
2.88066

>  <SCORE.INTRA.DIHEDRAL.0>
2.1627

>  <SCORE.INTRA.POLAR>
0

>  <SCORE.INTRA.POLAR.0>
0

>  <SCORE.INTRA.REPUL>
0

>  <SCORE.INTRA.REPUL.0>
0

>  <SCORE.INTRA.SOLV>
0.063905

>  <SCORE.INTRA.SOLV.lig_0>
-5.95779

>  <SCORE.INTRA.VDW>
0.133771

>  <SCORE.INTRA.VDW.0>
3.81702

>  <SCORE.INTRA.norm>
0.064242

>  <SCORE.RESTR>
0

>  <SCORE.RESTR.CAVITY>
0

>  <SCORE.RESTR.norm>
0

>  <SCORE.SYSTEM>
0

>  <SCORE.SYSTEM.CONST>
0

>  <SCORE.SYSTEM.DIHEDRAL>
0

>  <SCORE.SYSTEM.SOLV>
0

>  <SCORE.SYSTEM.norm>
0

>  <SCORE.heavy>
25

>  <SCORE.norm>
-1.96386

>  <RMSD>
1.926

$$$$
1q8n_lig
 OpenBabel11021811403D
libRbt.so/2013.1/901 2013/11/27
 25 27  0  0  0  0  0  0  0  0999 V2000
    0.9384    0.6306   -0.7769 C   0  0  0  0  0  0  0  0  0  0  0  0
    0.9296    2.0424   -1.5968 C   0  0  0  0  0  0  0  0  0  0  0  0
   -0.8407    0.6325    4.9026 N   0  0  0  0  0  0  0  0  0  0  0  0
    0.7202    3.2457   -1.0110 C   0  0  0  0  0  0  0  0  0  0  0  0
    2.6067   -4.6136   -3.1494 N   0  0  0  0  0  0  0  0  0  0  0  0
    0.7144    4.5036   -1.7929 C   0  0  0  0  0  0  0  0  0  0  0  0
    0.9239    4.4649   -3.1288 C   0  0  0  0  0  0  0  0  0  0  0  0
    1.1559    3.1929   -3.7724 C   0  0  0  0  0  0  0  0  0  0  0  0
    1.1569    2.0655   -3.0569 C   0  0  0  0  0  0  0  0  0  0  0  0
    0.4495    0.6363    0.7791 C   0  0  0  0  0  0  0  0  0  0  0  0
   -0.3224    1.6301    1.2659 C   0  0  0  0  0  0  0  0  0  0  0  0
   -0.7781    1.6516    2.6836 C   0  0  0  0  0  0  0  0  0  0  0  0
   -0.4218    0.6505    3.5322 C   0  0  0  0  0  0  0  0  0  0  0  0
    0.4202   -0.4440    3.0136 C   0  0  0  0  0  0  0  0  0  0  0  0
    0.8231   -0.4469    1.7352 C   0  0  0  0  0  0  0  0  0  0  0  0
    1.4288   -0.7862   -1.4847 C   0  0  0  0  0  0  0  0  0  0  0  0
    1.3001   -2.0816   -0.7316 C   0  0  0  0  0  0  0  0  0  0  0  0
    1.6672   -3.2577   -1.2477 C   0  0  0  0  0  0  0  0  0  0  0  0
    2.2263   -3.3452   -2.6018 C   0  0  0  0  0  0  0  0  0  0  0  0
    2.3689   -2.2110   -3.3186 C   0  0  0  0  0  0  0  0  0  0  0  0
    1.9583   -0.8834   -2.7494 C   0  0  0  0  0  0  0  0  0  0  0  0
   -0.8773   -0.5723    5.6743 C   0  0  0  0  0  0  0  0  0  0  0  0
   -1.2404    1.8444    5.5481 C   0  0  0  0  0  0  0  0  0  0  0  0
    3.5632   -4.6854   -4.2163 C   0  0  0  0  0  0  0  0  0  0  0  0
    2.0478   -5.8470   -2.6438 C   0  0  0  0  0  0  0  0  0  0  0  0
  1  2  1  0  0  0  0
  1 10  1  0  0  0  0
  1 16  1  0  0  0  0
  2  4  2  0  0  0  0
  2  9  1  0  0  0  0
  4  6  1  0  0  0  0
  6  7  2  0  0  0  0
  7  8  1  0  0  0  0
  8  9  2  0  0  0  0
 10 11  2  0  0  0  0
 10 15  1  0  0  0  0
 11 12  1  0  0  0  0
 12 13  2  0  0  0  0
 13  3  1  0  0  0  0
 13 14  1  0  0  0  0
 14 15  2  0  0  0  0
 16 17  2  0  0  0  0
 16 21  1  0  0  0  0
 17 18  1  0  0  0  0
 18 19  2  0  0  0  0
 19  5  1  0  0  0  0
 19 20  1  0  0  0  0
 20 21  2  0  0  0  0
 22  3  1  0  0  0  0
 23  3  1  0  0  0  0
 24  5  1  0  0  0  0
 25  5  1  0  0  0  0
M  END
>  <CHROM.1>
9.62056475,20.58919066,-174.36287446,158.36844664,-157.44990727,0.91538946
-0.14407344,-0.28479372,-3.08825894,-1.22244890,2.60492603

>  <Name>
1q8n_lig

>  <RI>
0

>  <Rbt.Current_Directory>
/home/itssahil/PROJECTS/Mol_Feturizer/New_Systems/rnas/1q8n

>  <Rbt.Executable>
rbdock ($Id: //depot/dev/client3/rdock/2013.1/src/exe/rbdock.cxx#4 $)

>  <Rbt.Library>
libRbt.so (2013.1, Build901 2013/11/27)

>  <Rbt.Parameter_File>
/export/apps/rDock/src/rDock_2013.1_src/data/scripts/dock_solv.prm

>  <Rbt.Receptor>
prm/blind_docking_40.prm

>  <SCORE>
-48.2914

>  <SCORE.INTER>
-50.1415

>  <SCORE.INTER.CONST>
1

>  <SCORE.INTER.POLAR>
0

>  <SCORE.INTER.ROT>
5

>  <SCORE.INTER.SOLV>
9.55672

>  <SCORE.INTER.VDW>
-43.5466

>  <SCORE.INTER.norm>
-2.00566

>  <SCORE.INTRA>
1.8501

>  <SCORE.INTRA.DIHEDRAL>
3.6168

>  <SCORE.INTRA.DIHEDRAL.0>
2.1627

>  <SCORE.INTRA.POLAR>
0

>  <SCORE.INTRA.POLAR.0>
0

>  <SCORE.INTRA.REPUL>
0

>  <SCORE.INTRA.REPUL.0>
0

>  <SCORE.INTRA.SOLV>
0.0677842

>  <SCORE.INTRA.SOLV.lig_0>
-5.95779

>  <SCORE.INTRA.VDW>
0.00780743

>  <SCORE.INTRA.VDW.0>
3.81702

>  <SCORE.INTRA.norm>
0.074004

>  <SCORE.RESTR>
0

>  <SCORE.RESTR.CAVITY>
0

>  <SCORE.RESTR.norm>
0

>  <SCORE.SYSTEM>
0

>  <SCORE.SYSTEM.CONST>
0

>  <SCORE.SYSTEM.DIHEDRAL>
0

>  <SCORE.SYSTEM.SOLV>
0

>  <SCORE.SYSTEM.norm>
0

>  <SCORE.heavy>
25

>  <SCORE.norm>
-1.93166

>  <RMSD>
1.927

$$$$
1q8n_lig
 OpenBabel11021811403D
libRbt.so/2013.1/901 2013/11/27
 25 27  0  0  0  0  0  0  0  0999 V2000
    0.8630    0.5149   -0.6324 C   0  0  0  0  0  0  0  0  0  0  0  0
    0.8555    1.8896   -1.5131 C   0  0  0  0  0  0  0  0  0  0  0  0
   -0.8611    0.8170    5.0560 N   0  0  0  0  0  0  0  0  0  0  0  0
    0.6972    3.1220   -0.9737 C   0  0  0  0  0  0  0  0  0  0  0  0
    2.6630   -4.6049   -3.1742 N   0  0  0  0  0  0  0  0  0  0  0  0
    0.6907    4.3447   -1.8098 C   0  0  0  0  0  0  0  0  0  0  0  0
    0.8476    4.2428   -3.1496 C   0  0  0  0  0  0  0  0  0  0  0  0
    1.0247    2.9387   -3.7445 C   0  0  0  0  0  0  0  0  0  0  0  0
    1.0268    1.8437   -2.9803 C   0  0  0  0  0  0  0  0  0  0  0  0
    0.3919    0.5925    0.9272 C   0  0  0  0  0  0  0  0  0  0  0  0
    0.7617   -0.3516    1.8172 C   0  0  0  0  0  0  0  0  0  0  0  0
    0.3410   -0.2969    3.2448 C   0  0  0  0  0  0  0  0  0  0  0  0
   -0.4365    0.7260    3.6903 C   0  0  0  0  0  0  0  0  0  0  0  0
   -0.8469    1.7670    2.7291 C   0  0  0  0  0  0  0  0  0  0  0  0
   -0.4608    1.7014    1.4472 C   0  0  0  0  0  0  0  0  0  0  0  0
    1.3342   -0.9354   -1.2830 C   0  0  0  0  0  0  0  0  0  0  0  0
    1.8695   -0.9859   -2.6875 C   0  0  0  0  0  0  0  0  0  0  0  0
    2.2748   -2.1193   -3.2666 C   0  0  0  0  0  0  0  0  0  0  0  0
    2.2154   -3.3968   -2.5468 C   0  0  0  0  0  0  0  0  0  0  0  0
    1.7372   -3.4082   -1.2852 C   0  0  0  0  0  0  0  0  0  0  0  0
    1.2802   -2.1401   -0.6233 C   0  0  0  0  0  0  0  0  0  0  0  0
   -0.8636   -0.3148    5.9321 C   0  0  0  0  0  0  0  0  0  0  0  0
   -1.3018    2.0683    5.5900 C   0  0  0  0  0  0  0  0  0  0  0  0
    2.0872   -5.8675   -2.8100 C   0  0  0  0  0  0  0  0  0  0  0  0
    3.6938   -4.5867   -4.1874 C   0  0  0  0  0  0  0  0  0  0  0  0
  1  2  1  0  0  0  0
  1 10  1  0  0  0  0
  1 16  1  0  0  0  0
  2  4  2  0  0  0  0
  2  9  1  0  0  0  0
  4  6  1  0  0  0  0
  6  7  2  0  0  0  0
  7  8  1  0  0  0  0
  8  9  2  0  0  0  0
 10 11  2  0  0  0  0
 10 15  1  0  0  0  0
 11 12  1  0  0  0  0
 12 13  2  0  0  0  0
 13  3  1  0  0  0  0
 13 14  1  0  0  0  0
 14 15  2  0  0  0  0
 16 17  2  0  0  0  0
 16 21  1  0  0  0  0
 17 18  1  0  0  0  0
 18 19  2  0  0  0  0
 19  5  1  0  0  0  0
 19 20  1  0  0  0  0
 20 21  2  0  0  0  0
 22  3  1  0  0  0  0
 23  3  1  0  0  0  0
 24  5  1  0  0  0  0
 25  5  1  0  0  0  0
M  END
>  <CHROM.1>
11.41906897,-158.49817371,4.70680982,-19.63135869,-151.02546682,0.87628455
-0.15707430,-0.21012853,3.12328464,-1.22469269,2.53773092

>  <Name>
1q8n_lig

>  <RI>
0

>  <Rbt.Current_Directory>
/home/itssahil/PROJECTS/Mol_Feturizer/New_Systems/rnas/1q8n

>  <Rbt.Executable>
rbdock ($Id: //depot/dev/client3/rdock/2013.1/src/exe/rbdock.cxx#4 $)

>  <Rbt.Library>
libRbt.so (2013.1, Build901 2013/11/27)

>  <Rbt.Parameter_File>
/export/apps/rDock/src/rDock_2013.1_src/data/scripts/dock_solv.prm

>  <Rbt.Receptor>
prm/blind_docking_40.prm

>  <SCORE>
-48.6915

>  <SCORE.INTER>
-50.597

>  <SCORE.INTER.CONST>
1

>  <SCORE.INTER.POLAR>
0

>  <SCORE.INTER.ROT>
5

>  <SCORE.INTER.SOLV>
9.2371

>  <SCORE.INTER.VDW>
-43.7437

>  <SCORE.INTER.norm>
-2.02388

>  <SCORE.INTRA>
1.9055

>  <SCORE.INTRA.DIHEDRAL>
4.44405

>  <SCORE.INTRA.DIHEDRAL.0>
2.1627

>  <SCORE.INTRA.POLAR>
0

>  <SCORE.INTRA.POLAR.0>
0

>  <SCORE.INTRA.REPUL>
0

>  <SCORE.INTRA.REPUL.0>
0

>  <SCORE.INTRA.SOLV>
0.0667628

>  <SCORE.INTRA.SOLV.lig_0>
-5.95779

>  <SCORE.INTRA.VDW>
-0.349904

>  <SCORE.INTRA.VDW.0>
3.81702

>  <SCORE.INTRA.norm>
0.07622

>  <SCORE.RESTR>
0

>  <SCORE.RESTR.CAVITY>
0

>  <SCORE.RESTR.norm>
0

>  <SCORE.SYSTEM>
0

>  <SCORE.SYSTEM.CONST>
0

>  <SCORE.SYSTEM.DIHEDRAL>
0

>  <SCORE.SYSTEM.SOLV>
0

>  <SCORE.SYSTEM.norm>
0

>  <SCORE.heavy>
25

>  <SCORE.norm>
-1.94766

>  <RMSD>
1.936

$$$$
1q8n_lig
 OpenBabel11021811403D
libRbt.so/2013.1/901 2013/11/27
 25 27  0  0  0  0  0  0  0  0999 V2000
    0.9682    0.6011   -0.7705 C   0  0  0  0  0  0  0  0  0  0  0  0
    0.9431    2.0146   -1.5870 C   0  0  0  0  0  0  0  0  0  0  0  0
   -0.7916    0.6128    4.9150 N   0  0  0  0  0  0  0  0  0  0  0  0
    0.7253    3.2146   -0.9976 C   0  0  0  0  0  0  0  0  0  0  0  0
    2.6591   -4.6237   -3.1695 N   0  0  0  0  0  0  0  0  0  0  0  0
    0.7047    4.4743   -1.7765 C   0  0  0  0  0  0  0  0  0  0  0  0
    0.9090    4.4405   -3.1133 C   0  0  0  0  0  0  0  0  0  0  0  0
    1.1498    3.1722   -3.7609 C   0  0  0  0  0  0  0  0  0  0  0  0
    1.1640    2.0432   -3.0480 C   0  0  0  0  0  0  0  0  0  0  0  0
    0.4874    0.5991    0.7881 C   0  0  0  0  0  0  0  0  0  0  0  0
    0.8591   -0.3846    1.6334 C   0  0  0  0  0  0  0  0  0  0  0  0
    0.4296   -0.4026    3.0593 C   0  0  0  0  0  0  0  0  0  0  0  0
   -0.3582    0.5916    3.5492 C   0  0  0  0  0  0  0  0  0  0  0  0
   -0.7709    1.6752    2.6373 C   0  0  0  0  0  0  0  0  0  0  0  0
   -0.3768    1.6750    1.3562 C   0  0  0  0  0  0  0  0  0  0  0  0
    1.4668   -0.8099   -1.4841 C   0  0  0  0  0  0  0  0  0  0  0  0
    1.3009   -2.1151   -0.7558 C   0  0  0  0  0  0  0  0  0  0  0  0
    1.6725   -3.2871   -1.2781 C   0  0  0  0  0  0  0  0  0  0  0  0
    2.2741   -3.3599   -2.6147 C   0  0  0  0  0  0  0  0  0  0  0  0
    2.4511   -2.2165   -3.3088 C   0  0  0  0  0  0  0  0  0  0  0  0
    2.0358   -0.8935   -2.7325 C   0  0  0  0  0  0  0  0  0  0  0  0
   -1.2459    1.8104    5.5537 C   0  0  0  0  0  0  0  0  0  0  0  0
   -0.7820   -0.5884    5.6910 C   0  0  0  0  0  0  0  0  0  0  0  0
    2.0725   -5.8388   -2.6817 C   0  0  0  0  0  0  0  0  0  0  0  0
    3.6362   -4.7107   -4.2312 C   0  0  0  0  0  0  0  0  0  0  0  0
  1  2  1  0  0  0  0
  1 10  1  0  0  0  0
  1 16  1  0  0  0  0
  2  4  2  0  0  0  0
  2  9  1  0  0  0  0
  4  6  1  0  0  0  0
  6  7  2  0  0  0  0
  7  8  1  0  0  0  0
  8  9  2  0  0  0  0
 10 11  2  0  0  0  0
 10 15  1  0  0  0  0
 11 12  1  0  0  0  0
 12 13  2  0  0  0  0
 13  3  1  0  0  0  0
 13 14  1  0  0  0  0
 14 15  2  0  0  0  0
 16 17  2  0  0  0  0
 16 21  1  0  0  0  0
 17 18  1  0  0  0  0
 18 19  2  0  0  0  0
 19  5  1  0  0  0  0
 19 20  1  0  0  0  0
 20 21  2  0  0  0  0
 22  3  1  0  0  0  0
 23  3  1  0  0  0  0
 24  5  1  0  0  0  0
 25  5  1  0  0  0  0
M  END
>  <CHROM.1>
9.55068016,-159.02567678,-171.84992630,159.92728033,21.69494206,0.94243892
-0.15680510,-0.28439283,-3.10222965,-1.22118820,2.58806386

>  <Name>
1q8n_lig

>  <RI>
0

>  <Rbt.Current_Directory>
/home/itssahil/PROJECTS/Mol_Feturizer/New_Systems/rnas/1q8n

>  <Rbt.Executable>
rbdock ($Id: //depot/dev/client3/rdock/2013.1/src/exe/rbdock.cxx#4 $)

>  <Rbt.Library>
libRbt.so (2013.1, Build901 2013/11/27)

>  <Rbt.Parameter_File>
/export/apps/rDock/src/rDock_2013.1_src/data/scripts/dock_solv.prm

>  <Rbt.Receptor>
prm/blind_docking_80.prm

>  <SCORE>
-48.6669

>  <SCORE.INTER>
-50.3193

>  <SCORE.INTER.CONST>
1

>  <SCORE.INTER.POLAR>
0

>  <SCORE.INTER.ROT>
5

>  <SCORE.INTER.SOLV>
9.5681

>  <SCORE.INTER.VDW>
-43.6689

>  <SCORE.INTER.norm>
-2.01277

>  <SCORE.INTRA>
1.65243

>  <SCORE.INTRA.DIHEDRAL>
3.2538

>  <SCORE.INTRA.DIHEDRAL.0>
2.1627

>  <SCORE.INTRA.POLAR>
0

>  <SCORE.INTRA.POLAR.0>
0

>  <SCORE.INTRA.REPUL>
0

>  <SCORE.INTRA.REPUL.0>
0

>  <SCORE.INTRA.SOLV>
0.0664429

>  <SCORE.INTRA.SOLV.lig_0>
-5.95779

>  <SCORE.INTRA.VDW>
-0.0076879

>  <SCORE.INTRA.VDW.0>
3.81702

>  <SCORE.INTRA.norm>
0.0660973

>  <SCORE.RESTR>
0

>  <SCORE.RESTR.CAVITY>
0

>  <SCORE.RESTR.norm>
0

>  <SCORE.SYSTEM>
0

>  <SCORE.SYSTEM.CONST>
0

>  <SCORE.SYSTEM.DIHEDRAL>
0

>  <SCORE.SYSTEM.SOLV>
0

>  <SCORE.SYSTEM.norm>
0

>  <SCORE.heavy>
25

>  <SCORE.norm>
-1.94668

>  <RMSD>
1.938

$$$$
1q8n_lig
 OpenBabel11021811403D
libRbt.so/2013.1/901 2013/11/27
 25 27  0  0  0  0  0  0  0  0999 V2000
    0.9606    0.6305   -0.7666 C   0  0  0  0  0  0  0  0  0  0  0  0
    0.9529    2.0439   -1.5838 C   0  0  0  0  0  0  0  0  0  0  0  0
   -0.8384    0.6192    4.9066 N   0  0  0  0  0  0  0  0  0  0  0  0
    0.7208    3.2438   -0.9996 C   0  0  0  0  0  0  0  0  0  0  0  0
    2.6355   -4.6073   -3.1485 N   0  0  0  0  0  0  0  0  0  0  0  0
    0.7169    4.5033   -1.7791 C   0  0  0  0  0  0  0  0  0  0  0  0
    0.9515    4.4695   -3.1109 C   0  0  0  0  0  0  0  0  0  0  0  0
    1.2080    3.2013   -3.7526 C   0  0  0  0  0  0  0  0  0  0  0  0
    1.2070    2.0724   -3.0393 C   0  0  0  0  0  0  0  0  0  0  0  0
    0.4662    0.6326    0.7876 C   0  0  0  0  0  0  0  0  0  0  0  0
   -0.3207    1.6168    1.2699 C   0  0  0  0  0  0  0  0  0  0  0  0
   -0.7816    1.6350    2.6859 C   0  0  0  0  0  0  0  0  0  0  0  0
   -0.4149    0.6403    3.5377 C   0  0  0  0  0  0  0  0  0  0  0  0
    0.4434   -0.4439    3.0241 C   0  0  0  0  0  0  0  0  0  0  0  0
    0.8508   -0.4438    1.7471 C   0  0  0  0  0  0  0  0  0  0  0  0
    1.4552   -0.7843   -1.4754 C   0  0  0  0  0  0  0  0  0  0  0  0
    1.2785   -2.0874   -0.7458 C   0  0  0  0  0  0  0  0  0  0  0  0
    1.6465   -3.2622   -1.2644 C   0  0  0  0  0  0  0  0  0  0  0  0
    2.2545   -3.3404   -2.5977 C   0  0  0  0  0  0  0  0  0  0  0  0
    2.4413   -2.1991   -3.2928 C   0  0  0  0  0  0  0  0  0  0  0  0
    2.0302   -0.8730   -2.7208 C   0  0  0  0  0  0  0  0  0  0  0  0
   -1.2563    1.8023    5.5951 C   0  0  0  0  0  0  0  0  0  0  0  0
   -0.8555   -0.6114    5.6349 C   0  0  0  0  0  0  0  0  0  0  0  0
    2.0524   -5.8196   -2.6501 C   0  0  0  0  0  0  0  0  0  0  0  0
    3.6051   -4.6999   -4.2166 C   0  0  0  0  0  0  0  0  0  0  0  0
  1  2  1  0  0  0  0
  1 10  1  0  0  0  0
  1 16  1  0  0  0  0
  2  4  2  0  0  0  0
  2  9  1  0  0  0  0
  4  6  1  0  0  0  0
  6  7  2  0  0  0  0
  7  8  1  0  0  0  0
  8  9  2  0  0  0  0
 10 11  2  0  0  0  0
 10 15  1  0  0  0  0
 11 12  1  0  0  0  0
 12 13  2  0  0  0  0
 13  3  1  0  0  0  0
 13 14  1  0  0  0  0
 14 15  2  0  0  0  0
 16 17  2  0  0  0  0
 16 21  1  0  0  0  0
 17 18  1  0  0  0  0
 18 19  2  0  0  0  0
 19  5  1  0  0  0  0
 19 20  1  0  0  0  0
 20 21  2  0  0  0  0
 22  3  1  0  0  0  0
 23  3  1  0  0  0  0
 24  5  1  0  0  0  0
 25  5  1  0  0  0  0
M  END
>  <CHROM.1>
8.62827100,21.31614192,-172.09403949,-22.14377788,20.89997834,0.93485445
-0.14758163,-0.27744506,-3.08224608,-1.21889126,2.61468796

>  <Name>
1q8n_lig

>  <RI>
0

>  <Rbt.Current_Directory>
/home/itssahil/PROJECTS/Mol_Feturizer/New_Systems/rnas/1q8n

>  <Rbt.Executable>
rbdock ($Id: //depot/dev/client3/rdock/2013.1/src/exe/rbdock.cxx#4 $)

>  <Rbt.Library>
libRbt.so (2013.1, Build901 2013/11/27)

>  <Rbt.Parameter_File>
/export/apps/rDock/src/rDock_2013.1_src/data/scripts/dock_solv.prm

>  <Rbt.Receptor>
prm/pocket_docking_4.prm

>  <SCORE>
-48.4357

>  <SCORE.INTER>
-50.1483

>  <SCORE.INTER.CONST>
1

>  <SCORE.INTER.POLAR>
0

>  <SCORE.INTER.ROT>
5

>  <SCORE.INTER.SOLV>
9.60686

>  <SCORE.INTER.VDW>
-43.5679

>  <SCORE.INTER.norm>
-2.00593

>  <SCORE.INTRA>
1.71263

>  <SCORE.INTRA.DIHEDRAL>
3.44272

>  <SCORE.INTRA.DIHEDRAL.0>
2.1627

>  <SCORE.INTRA.POLAR>
0

>  <SCORE.INTRA.POLAR.0>
0

>  <SCORE.INTRA.REPUL>
0

>  <SCORE.INTRA.REPUL.0>
0

>  <SCORE.INTRA.SOLV>
0.0668833

>  <SCORE.INTRA.SOLV.lig_0>
-5.95779

>  <SCORE.INTRA.VDW>
-0.0421702

>  <SCORE.INTRA.VDW.0>
3.81702

>  <SCORE.INTRA.norm>
0.0685052

>  <SCORE.RESTR>
0

>  <SCORE.RESTR.CAVITY>
0

>  <SCORE.RESTR.norm>
0

>  <SCORE.SYSTEM>
0

>  <SCORE.SYSTEM.CONST>
0

>  <SCORE.SYSTEM.DIHEDRAL>
0

>  <SCORE.SYSTEM.SOLV>
0

>  <SCORE.SYSTEM.norm>
0

>  <SCORE.heavy>
25

>  <SCORE.norm>
-1.93743

>  <RMSD>
1.942

$$$$
1q8n_lig
 OpenBabel11021811413D
libRbt.so/2013.1/901 2013/11/27
 25 27  0  0  0  0  0  0  0  0999 V2000
    0.8804    0.7308   -0.6536 C   0  0  0  0  0  0  0  0  0  0  0  0
    0.8924    2.0771   -1.5772 C   0  0  0  0  0  0  0  0  0  0  0  0
    2.7119   -4.3898   -3.0717 N   0  0  0  0  0  0  0  0  0  0  0  0
    0.7348    3.3268   -1.0789 C   0  0  0  0  0  0  0  0  0  0  0  0
   -0.8120    0.6393    5.0944 N   0  0  0  0  0  0  0  0  0  0  0  0
    0.7463    4.5225   -1.9530 C   0  0  0  0  0  0  0  0  0  0  0  0
    0.9195    4.3775   -3.2868 C   0  0  0  0  0  0  0  0  0  0  0  0
    1.0961    3.0543   -3.8381 C   0  0  0  0  0  0  0  0  0  0  0  0
    1.0820    1.9840   -3.0398 C   0  0  0  0  0  0  0  0  0  0  0  0
    1.3831   -0.6699   -1.3210 C   0  0  0  0  0  0  0  0  0  0  0  0
    2.0437   -0.6867   -2.4973 C   0  0  0  0  0  0  0  0  0  0  0  0
    2.5100   -1.9560   -3.1213 C   0  0  0  0  0  0  0  0  0  0  0  0
    2.2782   -3.1465   -2.5062 C   0  0  0  0  0  0  0  0  0  0  0  0
    1.5589   -3.1437   -1.2183 C   0  0  0  0  0  0  0  0  0  0  0  0
    1.1446   -1.9922   -0.6715 C   0  0  0  0  0  0  0  0  0  0  0  0
    0.3734    0.7601    0.9246 C   0  0  0  0  0  0  0  0  0  0  0  0
    0.7037   -0.3887    1.8372 C   0  0  0  0  0  0  0  0  0  0  0  0
    0.3337   -0.4225    3.1203 C   0  0  0  0  0  0  0  0  0  0  0  0
   -0.4297    0.6813    3.7141 C   0  0  0  0  0  0  0  0  0  0  0  0
   -0.7576    1.7343    2.9367 C   0  0  0  0  0  0  0  0  0  0  0  0
   -0.3459    1.7840    1.4935 C   0  0  0  0  0  0  0  0  0  0  0  0
    2.1283   -5.6427   -2.7002 C   0  0  0  0  0  0  0  0  0  0  0  0
    3.7608   -4.4104   -4.0435 C   0  0  0  0  0  0  0  0  0  0  0  0
   -1.3539    1.8044    5.7326 C   0  0  0  0  0  0  0  0  0  0  0  0
   -0.6699   -0.5684    5.8759 C   0  0  0  0  0  0  0  0  0  0  0  0
  1  2  1  0  0  0  0
  1 10  1  0  0  0  0
  1 16  1  0  0  0  0
  2  4  2  0  0  0  0
  2  9  1  0  0  0  0
  4  6  1  0  0  0  0
  6  7  2  0  0  0  0
  7  8  1  0  0  0  0
  8  9  2  0  0  0  0
 10 11  2  0  0  0  0
 10 15  1  0  0  0  0
 11 12  1  0  0  0  0
 12 13  2  0  0  0  0
 13  3  1  0  0  0  0
 13 14  1  0  0  0  0
 14 15  2  0  0  0  0
 16 17  2  0  0  0  0
 16 21  1  0  0  0  0
 17 18  1  0  0  0  0
 18 19  2  0  0  0  0
 19  5  1  0  0  0  0
 19 20  1  0  0  0  0
 20 21  2  0  0  0  0
 22  3  1  0  0  0  0
 23  3  1  0  0  0  0
 24  5  1  0  0  0  0
 25  5  1  0  0  0  0
M  END
>  <CHROM.1>
-167.56540331,13.35022183,-164.19672550,-159.20975033,169.38033183,0.91817696
-0.06177958,-0.19237307,3.06456166,-1.21373813,2.54750011

>  <Name>
1q8n_lig

>  <RI>
0

>  <Rbt.Current_Directory>
/home/itssahil/PROJECTS/Mol_Feturizer/New_Systems/rnas/1q8n

>  <Rbt.Executable>
rbdock ($Id: //depot/dev/client3/rdock/2013.1/src/exe/rbdock.cxx#4 $)

>  <Rbt.Library>
libRbt.so (2013.1, Build901 2013/11/27)

>  <Rbt.Parameter_File>
/export/apps/rDock/src/rDock_2013.1_src/data/scripts/dock_solv.prm

>  <Rbt.Receptor>
prm/pocket_docking_6.prm

>  <SCORE>
-46.6958

>  <SCORE.INTER>
-48.4354

>  <SCORE.INTER.CONST>
1

>  <SCORE.INTER.POLAR>
0

>  <SCORE.INTER.ROT>
5

>  <SCORE.INTER.SOLV>
9.2825

>  <SCORE.INTER.VDW>
-42.3178

>  <SCORE.INTER.norm>
-1.93742

>  <SCORE.INTRA>
1.73969

>  <SCORE.INTRA.DIHEDRAL>
2.04667

>  <SCORE.INTRA.DIHEDRAL.0>
2.1627

>  <SCORE.INTRA.POLAR>
0

>  <SCORE.INTRA.POLAR.0>
0

>  <SCORE.INTRA.REPUL>
0

>  <SCORE.INTRA.REPUL.0>
0

>  <SCORE.INTRA.SOLV>
0.0671893

>  <SCORE.INTRA.SOLV.lig_0>
-5.95779

>  <SCORE.INTRA.VDW>
0.682758

>  <SCORE.INTRA.VDW.0>
3.81702

>  <SCORE.INTRA.norm>
0.0695875

>  <SCORE.RESTR>
0

>  <SCORE.RESTR.CAVITY>
0

>  <SCORE.RESTR.norm>
0

>  <SCORE.SYSTEM>
0

>  <SCORE.SYSTEM.CONST>
0

>  <SCORE.SYSTEM.DIHEDRAL>
0

>  <SCORE.SYSTEM.SOLV>
0

>  <SCORE.SYSTEM.norm>
0

>  <SCORE.heavy>
25

>  <SCORE.norm>
-1.86783

>  <RMSD>
1.947

$$$$
1q8n_lig
 OpenBabel11021811413D
libRbt.so/2013.1/901 2013/11/27
 25 27  0  0  0  0  0  0  0  0999 V2000
    0.8457    0.7037   -0.6575 C   0  0  0  0  0  0  0  0  0  0  0  0
    0.8637    2.0538   -1.5753 C   0  0  0  0  0  0  0  0  0  0  0  0
    2.7122   -4.4027   -3.0788 N   0  0  0  0  0  0  0  0  0  0  0  0
    0.7176    3.3025   -1.0710 C   0  0  0  0  0  0  0  0  0  0  0  0
   -0.9145    0.5758    5.0695 N   0  0  0  0  0  0  0  0  0  0  0  0
    0.7342    4.5019   -1.9400 C   0  0  0  0  0  0  0  0  0  0  0  0
    0.9005    4.3614   -3.2751 C   0  0  0  0  0  0  0  0  0  0  0  0
    1.0649    3.0393   -3.8329 C   0  0  0  0  0  0  0  0  0  0  0  0
    1.0462    1.9657   -3.0392 C   0  0  0  0  0  0  0  0  0  0  0  0
    1.3581   -0.6931   -1.3257 C   0  0  0  0  0  0  0  0  0  0  0  0
    2.0435   -0.7024   -2.4879 C   0  0  0  0  0  0  0  0  0  0  0  0
    2.5190   -1.9680   -3.1124 C   0  0  0  0  0  0  0  0  0  0  0  0
    2.2705   -3.1627   -2.5123 C   0  0  0  0  0  0  0  0  0  0  0  0
    1.5241   -3.1683   -1.2399 C   0  0  0  0  0  0  0  0  0  0  0  0
    1.1017   -2.0200   -0.6925 C   0  0  0  0  0  0  0  0  0  0  0  0
    0.3231    0.7253    0.9158 C   0  0  0  0  0  0  0  0  0  0  0  0
    0.5784   -0.4608    1.8044 C   0  0  0  0  0  0  0  0  0  0  0  0
    0.1925   -0.5031    3.0826 C   0  0  0  0  0  0  0  0  0  0  0  0
   -0.5148    0.6279    3.6944 C   0  0  0  0  0  0  0  0  0  0  0  0
   -0.7746    1.7151    2.9387 C   0  0  0  0  0  0  0  0  0  0  0  0
   -0.3442    1.7746    1.5013 C   0  0  0  0  0  0  0  0  0  0  0  0
    2.1621   -5.6629   -2.6816 C   0  0  0  0  0  0  0  0  0  0  0  0
    3.7354   -4.4125   -4.0779 C   0  0  0  0  0  0  0  0  0  0  0  0
   -1.3150    1.7714    5.7540 C   0  0  0  0  0  0  0  0  0  0  0  0
   -0.9319   -0.6720    5.7990 C   0  0  0  0  0  0  0  0  0  0  0  0
  1  2  1  0  0  0  0
  1 10  1  0  0  0  0
  1 16  1  0  0  0  0
  2  4  2  0  0  0  0
  2  9  1  0  0  0  0
  4  6  1  0  0  0  0
  6  7  2  0  0  0  0
  7  8  1  0  0  0  0
  8  9  2  0  0  0  0
 10 11  2  0  0  0  0
 10 15  1  0  0  0  0
 11 12  1  0  0  0  0
 12 13  2  0  0  0  0
 13  3  1  0  0  0  0
 13 14  1  0  0  0  0
 14 15  2  0  0  0  0
 16 17  2  0  0  0  0
 16 21  1  0  0  0  0
 17 18  1  0  0  0  0
 18 19  2  0  0  0  0
 19  5  1  0  0  0  0
 19 20  1  0  0  0  0
 20 21  2  0  0  0  0
 22  3  1  0  0  0  0
 23  3  1  0  0  0  0
 24  5  1  0  0  0  0
 25  5  1  0  0  0  0
M  END
>  <CHROM.1>
-166.58110340,14.11157889,-167.70767732,-162.36289067,165.30029333,0.87720552
-0.09280045,-0.20030277,3.08725944,-1.20486549,2.57522306

>  <Name>
1q8n_lig

>  <RI>
0

>  <Rbt.Current_Directory>
/home/itssahil/PROJECTS/Mol_Feturizer/New_Systems/rnas/1q8n

>  <Rbt.Executable>
rbdock ($Id: //depot/dev/client3/rdock/2013.1/src/exe/rbdock.cxx#4 $)

>  <Rbt.Library>
libRbt.so (2013.1, Build901 2013/11/27)

>  <Rbt.Parameter_File>
/export/apps/rDock/src/rDock_2013.1_src/data/scripts/dock_solv.prm

>  <Rbt.Receptor>
prm/pocket_docking_6.prm

>  <SCORE>
-46.7494

>  <SCORE.INTER>
-48.4785

>  <SCORE.INTER.CONST>
1

>  <SCORE.INTER.POLAR>
0

>  <SCORE.INTER.ROT>
5

>  <SCORE.INTER.SOLV>
9.23101

>  <SCORE.INTER.VDW>
-42.3294

>  <SCORE.INTER.norm>
-1.93914

>  <SCORE.INTRA>
1.72916

>  <SCORE.INTRA.DIHEDRAL>
1.9985

>  <SCORE.INTRA.DIHEDRAL.0>
2.1627

>  <SCORE.INTRA.POLAR>
0

>  <SCORE.INTRA.POLAR.0>
0

>  <SCORE.INTRA.REPUL>
0

>  <SCORE.INTRA.REPUL.0>
0

>  <SCORE.INTRA.SOLV>
0.0681581

>  <SCORE.INTRA.SOLV.lig_0>
-5.95779

>  <SCORE.INTRA.VDW>
0.695831

>  <SCORE.INTRA.VDW.0>
3.81702

>  <SCORE.INTRA.norm>
0.0691663

>  <SCORE.RESTR>
0

>  <SCORE.RESTR.CAVITY>
0

>  <SCORE.RESTR.norm>
0

>  <SCORE.SYSTEM>
0

>  <SCORE.SYSTEM.CONST>
0

>  <SCORE.SYSTEM.DIHEDRAL>
0

>  <SCORE.SYSTEM.SOLV>
0

>  <SCORE.SYSTEM.norm>
0

>  <SCORE.heavy>
25

>  <SCORE.norm>
-1.86997

>  <RMSD>
1.955

$$$$
1q8n_lig
 OpenBabel11021811403D
libRbt.so/2013.1/901 2013/11/27
 25 27  0  0  0  0  0  0  0  0999 V2000
    0.9557    0.6287   -0.7446 C   0  0  0  0  0  0  0  0  0  0  0  0
    0.9490    2.0443   -1.5580 C   0  0  0  0  0  0  0  0  0  0  0  0
   -0.8590    0.6006    4.9235 N   0  0  0  0  0  0  0  0  0  0  0  0
    0.7009    3.2409   -0.9737 C   0  0  0  0  0  0  0  0  0  0  0  0
    2.6439   -4.6011   -3.1346 N   0  0  0  0  0  0  0  0  0  0  0  0
    0.6986    4.5026   -1.7497 C   0  0  0  0  0  0  0  0  0  0  0  0
    0.9511    4.4740   -3.0784 C   0  0  0  0  0  0  0  0  0  0  0  0
    1.2248    3.2094   -3.7201 C   0  0  0  0  0  0  0  0  0  0  0  0
    1.2221    2.0786   -3.0100 C   0  0  0  0  0  0  0  0  0  0  0  0
    0.4569    0.6262    0.8083 C   0  0  0  0  0  0  0  0  0  0  0  0
   -0.3406    1.6029    1.2882 C   0  0  0  0  0  0  0  0  0  0  0  0
   -0.8056    1.6167    2.7030 C   0  0  0  0  0  0  0  0  0  0  0  0
   -0.4319    0.6256    3.5558 C   0  0  0  0  0  0  0  0  0  0  0  0
    0.4381   -0.4504    3.0447 C   0  0  0  0  0  0  0  0  0  0  0  0
    0.8491   -0.4464    1.7689 C   0  0  0  0  0  0  0  0  0  0  0  0
    1.4535   -0.7838   -1.4558 C   0  0  0  0  0  0  0  0  0  0  0  0
    1.2876   -2.0875   -0.7250 C   0  0  0  0  0  0  0  0  0  0  0  0
    1.6586   -3.2606   -1.2453 C   0  0  0  0  0  0  0  0  0  0  0  0
    2.2596   -3.3361   -2.5820 C   0  0  0  0  0  0  0  0  0  0  0  0
    2.4366   -2.1940   -3.2784 C   0  0  0  0  0  0  0  0  0  0  0  0
    2.0220   -0.8698   -2.7044 C   0  0  0  0  0  0  0  0  0  0  0  0
   -0.9194   -0.6111    5.6828 C   0  0  0  0  0  0  0  0  0  0  0  0
   -1.2430    1.8122    5.5790 C   0  0  0  0  0  0  0  0  0  0  0  0
    2.0512   -5.8144   -2.6498 C   0  0  0  0  0  0  0  0  0  0  0  0
    3.6265   -4.6909   -4.1910 C   0  0  0  0  0  0  0  0  0  0  0  0
  1  2  1  0  0  0  0
  1 10  1  0  0  0  0
  1 16  1  0  0  0  0
  2  4  2  0  0  0  0
  2  9  1  0  0  0  0
  4  6  1  0  0  0  0
  6  7  2  0  0  0  0
  7  8  1  0  0  0  0
  8  9  2  0  0  0  0
 10 11  2  0  0  0  0
 10 15  1  0  0  0  0
 11 12  1  0  0  0  0
 12 13  2  0  0  0  0
 13  3  1  0  0  0  0
 13 14  1  0  0  0  0
 14 15  2  0  0  0  0
 16 17  2  0  0  0  0
 16 21  1  0  0  0  0
 17 18  1  0  0  0  0
 18 19  2  0  0  0  0
 19  5  1  0  0  0  0
 19 20  1  0  0  0  0
 20 21  2  0  0  0  0
 22  3  1  0  0  0  0
 23  3  1  0  0  0  0
 24  5  1  0  0  0  0
 25  5  1  0  0  0  0
M  END
>  <CHROM.1>
7.93740862,21.83699038,-172.65933119,156.03602302,22.07608824,0.92985127
-0.14827940,-0.25727262,-3.07958507,-1.21581696,2.61891814

>  <Name>
1q8n_lig

>  <RI>
0

>  <Rbt.Current_Directory>
/home/itssahil/PROJECTS/Mol_Feturizer/New_Systems/rnas/1q8n

>  <Rbt.Executable>
rbdock ($Id: //depot/dev/client3/rdock/2013.1/src/exe/rbdock.cxx#4 $)

>  <Rbt.Library>
libRbt.so (2013.1, Build901 2013/11/27)

>  <Rbt.Parameter_File>
/export/apps/rDock/src/rDock_2013.1_src/data/scripts/dock_solv.prm

>  <Rbt.Receptor>
prm/blind_docking_100.prm

>  <SCORE>
-48.4691

>  <SCORE.INTER>
-50.2779

>  <SCORE.INTER.CONST>
1

>  <SCORE.INTER.POLAR>
0

>  <SCORE.INTER.ROT>
5

>  <SCORE.INTER.SOLV>
9.62625

>  <SCORE.INTER.VDW>
-43.6607

>  <SCORE.INTER.norm>
-2.01111

>  <SCORE.INTRA>
1.80873

>  <SCORE.INTRA.DIHEDRAL>
3.91465

>  <SCORE.INTRA.DIHEDRAL.0>
2.1627

>  <SCORE.INTRA.POLAR>
0

>  <SCORE.INTRA.POLAR.0>
0

>  <SCORE.INTRA.REPUL>
0

>  <SCORE.INTRA.REPUL.0>
0

>  <SCORE.INTRA.SOLV>
0.0668417

>  <SCORE.INTRA.SOLV.lig_0>
-5.95779

>  <SCORE.INTRA.VDW>
-0.182016

>  <SCORE.INTRA.VDW.0>
3.81702

>  <SCORE.INTRA.norm>
0.0723492

>  <SCORE.RESTR>
0

>  <SCORE.RESTR.CAVITY>
0

>  <SCORE.RESTR.norm>
0

>  <SCORE.SYSTEM>
0

>  <SCORE.SYSTEM.CONST>
0

>  <SCORE.SYSTEM.DIHEDRAL>
0

>  <SCORE.SYSTEM.SOLV>
0

>  <SCORE.SYSTEM.norm>
0

>  <SCORE.heavy>
25

>  <SCORE.norm>
-1.93876

>  <RMSD>
1.956

$$$$
1q8n_lig
 OpenBabel11021811413D
libRbt.so/2013.1/901 2013/11/27
 25 27  0  0  0  0  0  0  0  0999 V2000
    0.9255    0.6077   -0.5644 C   0  0  0  0  0  0  0  0  0  0  0  0
    0.9089    1.9660   -1.4701 C   0  0  0  0  0  0  0  0  0  0  0  0
    2.7395   -4.4500   -3.1239 N   0  0  0  0  0  0  0  0  0  0  0  0
    0.6972    3.2025   -0.9592 C   0  0  0  0  0  0  0  0  0  0  0  0
   -0.9228    0.8221    5.1322 N   0  0  0  0  0  0  0  0  0  0  0  0
    0.6844    4.4096   -1.8174 C   0  0  0  0  0  0  0  0  0  0  0  0
    0.8898    4.2889   -3.1490 C   0  0  0  0  0  0  0  0  0  0  0  0
    1.1242    2.9804   -3.7135 C   0  0  0  0  0  0  0  0  0  0  0  0
    1.1315    1.8994   -2.9295 C   0  0  0  0  0  0  0  0  0  0  0  0
    1.4216   -0.7810   -1.2612 C   0  0  0  0  0  0  0  0  0  0  0  0
    1.1545   -1.9790   -0.7009 C   0  0  0  0  0  0  0  0  0  0  0  0
    1.5996   -3.2568   -1.3230 C   0  0  0  0  0  0  0  0  0  0  0  0
    2.2949   -3.2433   -2.4916 C   0  0  0  0  0  0  0  0  0  0  0  0
    2.5925   -1.9409   -3.1172 C   0  0  0  0  0  0  0  0  0  0  0  0
    2.1860   -0.8002   -2.5428 C   0  0  0  0  0  0  0  0  0  0  0  0
    0.4535    0.6131    1.0249 C   0  0  0  0  0  0  0  0  0  0  0  0
   -0.3459    1.7676    1.5633 C   0  0  0  0  0  0  0  0  0  0  0  0
   -0.7650    1.8286    2.8302 C   0  0  0  0  0  0  0  0  0  0  0  0
   -0.4588    0.7511    3.7783 C   0  0  0  0  0  0  0  0  0  0  0  0
    0.2613   -0.3056    3.3479 C   0  0  0  0  0  0  0  0  0  0  0  0
    0.7364   -0.3859    1.9256 C   0  0  0  0  0  0  0  0  0  0  0  0
    3.7473   -4.4533   -4.1401 C   0  0  0  0  0  0  0  0  0  0  0  0
    2.1759   -5.7091   -2.7465 C   0  0  0  0  0  0  0  0  0  0  0  0
   -1.3905    2.0654    5.6743 C   0  0  0  0  0  0  0  0  0  0  0  0
   -0.9388   -0.3471    5.9821 C   0  0  0  0  0  0  0  0  0  0  0  0
  1  2  1  0  0  0  0
  1 10  1  0  0  0  0
  1 16  1  0  0  0  0
  2  4  2  0  0  0  0
  2  9  1  0  0  0  0
  4  6  1  0  0  0  0
  6  7  2  0  0  0  0
  7  8  1  0  0  0  0
  8  9  2  0  0  0  0
 10 11  2  0  0  0  0
 10 15  1  0  0  0  0
 11 12  1  0  0  0  0
 12 13  2  0  0  0  0
 13  3  1  0  0  0  0
 13 14  1  0  0  0  0
 14 15  2  0  0  0  0
 16 17  2  0  0  0  0
 16 21  1  0  0  0  0
 17 18  1  0  0  0  0
 18 19  2  0  0  0  0
 19  5  1  0  0  0  0
 19 20  1  0  0  0  0
 20 21  2  0  0  0  0
 22  3  1  0  0  0  0
 23  3  1  0  0  0  0
 24  5  1  0  0  0  0
 25  5  1  0  0  0  0
M  END
>  <CHROM.1>
-170.52936020,-163.32077772,16.65091207,-163.42412508,-15.70479488,0.91550983
-0.07795952,-0.15238610,3.11477458,-1.20905711,2.56695662

>  <Name>
1q8n_lig

>  <RI>
0

>  <Rbt.Current_Directory>
/home/itssahil/PROJECTS/Mol_Feturizer/New_Systems/rnas/1q8n

>  <Rbt.Executable>
rbdock ($Id: //depot/dev/client3/rdock/2013.1/src/exe/rbdock.cxx#4 $)

>  <Rbt.Library>
libRbt.so (2013.1, Build901 2013/11/27)

>  <Rbt.Parameter_File>
/export/apps/rDock/src/rDock_2013.1_src/data/scripts/dock_solv.prm

>  <Rbt.Receptor>
prm/pocket_docking_8.prm

>  <SCORE>
-48.1329

>  <SCORE.INTER>
-49.6181

>  <SCORE.INTER.CONST>
1

>  <SCORE.INTER.POLAR>
0

>  <SCORE.INTER.ROT>
5

>  <SCORE.INTER.SOLV>
9.40083

>  <SCORE.INTER.VDW>
-43.1457

>  <SCORE.INTER.norm>
-1.98473

>  <SCORE.INTRA>
1.48523

>  <SCORE.INTRA.DIHEDRAL>
1.97816

>  <SCORE.INTRA.DIHEDRAL.0>
2.1627

>  <SCORE.INTRA.POLAR>
0

>  <SCORE.INTRA.POLAR.0>
0

>  <SCORE.INTRA.REPUL>
0

>  <SCORE.INTRA.REPUL.0>
0

>  <SCORE.INTRA.SOLV>
0.0663783

>  <SCORE.INTRA.SOLV.lig_0>
-5.95779

>  <SCORE.INTRA.VDW>
0.462965

>  <SCORE.INTRA.VDW.0>
3.81702

>  <SCORE.INTRA.norm>
0.0594093

>  <SCORE.RESTR>
0

>  <SCORE.RESTR.CAVITY>
0

>  <SCORE.RESTR.norm>
0

>  <SCORE.SYSTEM>
0

>  <SCORE.SYSTEM.CONST>
0

>  <SCORE.SYSTEM.DIHEDRAL>
0

>  <SCORE.SYSTEM.SOLV>
0

>  <SCORE.SYSTEM.norm>
0

>  <SCORE.heavy>
25

>  <SCORE.norm>
-1.92532

>  <RMSD>
1.960

$$$$
1q8n_lig
 OpenBabel11021811403D
libRbt.so/2013.1/901 2013/11/27
 25 27  0  0  0  0  0  0  0  0999 V2000
    0.9518    0.6136   -0.7443 C   0  0  0  0  0  0  0  0  0  0  0  0
    0.9394    2.0264   -1.5626 C   0  0  0  0  0  0  0  0  0  0  0  0
   -0.7992    0.6097    4.9439 N   0  0  0  0  0  0  0  0  0  0  0  0
    0.7161    3.2273   -0.9771 C   0  0  0  0  0  0  0  0  0  0  0  0
    2.6046   -4.6283   -3.1324 N   0  0  0  0  0  0  0  0  0  0  0  0
    0.7075    4.4862   -1.7575 C   0  0  0  0  0  0  0  0  0  0  0  0
    0.9286    4.4507   -3.0916 C   0  0  0  0  0  0  0  0  0  0  0  0
    1.1755    3.1814   -3.7348 C   0  0  0  0  0  0  0  0  0  0  0  0
    1.1788    2.0531   -3.0206 C   0  0  0  0  0  0  0  0  0  0  0  0
    0.4704    0.6177    0.8140 C   0  0  0  0  0  0  0  0  0  0  0  0
   -0.3327    1.5892    1.2954 C   0  0  0  0  0  0  0  0  0  0  0  0
   -0.7821    1.6089    2.7151 C   0  0  0  0  0  0  0  0  0  0  0  0
   -0.3877    0.6288    3.5713 C   0  0  0  0  0  0  0  0  0  0  0  0
    0.4887   -0.4414    3.0588 C   0  0  0  0  0  0  0  0  0  0  0  0
    0.8854   -0.4429    1.7785 C   0  0  0  0  0  0  0  0  0  0  0  0
    1.4383   -0.8025   -1.4561 C   0  0  0  0  0  0  0  0  0  0  0  0
    1.2983   -2.1007   -0.7099 C   0  0  0  0  0  0  0  0  0  0  0  0
    1.6618   -3.2763   -1.2296 C   0  0  0  0  0  0  0  0  0  0  0  0
    2.2281   -3.3605   -2.5809 C   0  0  0  0  0  0  0  0  0  0  0  0
    2.3810   -2.2237   -3.2914 C   0  0  0  0  0  0  0  0  0  0  0  0
    1.9745   -0.8966   -2.7182 C   0  0  0  0  0  0  0  0  0  0  0  0
   -1.2460    1.7872    5.6238 C   0  0  0  0  0  0  0  0  0  0  0  0
   -0.7742   -0.6132    5.6850 C   0  0  0  0  0  0  0  0  0  0  0  0
    3.5734   -4.7011   -4.1881 C   0  0  0  0  0  0  0  0  0  0  0  0
    2.0294   -5.8604   -2.6419 C   0  0  0  0  0  0  0  0  0  0  0  0
  1  2  1  0  0  0  0
  1 10  1  0  0  0  0
  1 16  1  0  0  0  0
  2  4  2  0  0  0  0
  2  9  1  0  0  0  0
  4  6  1  0  0  0  0
  6  7  2  0  0  0  0
  7  8  1  0  0  0  0
  8  9  2  0  0  0  0
 10 11  2  0  0  0  0
 10 15  1  0  0  0  0
 11 12  1  0  0  0  0
 12 13  2  0  0  0  0
 13  3  1  0  0  0  0
 13 14  1  0  0  0  0
 14 15  2  0  0  0  0
 16 17  2  0  0  0  0
 16 21  1  0  0  0  0
 17 18  1  0  0  0  0
 18 19  2  0  0  0  0
 19  5  1  0  0  0  0
 19 20  1  0  0  0  0
 20 21  2  0  0  0  0
 22  3  1  0  0  0  0
 23  3  1  0  0  0  0
 24  5  1  0  0  0  0
 25  5  1  0  0  0  0
M  END
>  <CHROM.1>
8.74110735,22.65585412,-173.65814857,-21.63428945,-157.03256291,0.93123369
-0.16377157,-0.25316159,-3.09774251,-1.22617542,2.59826211

>  <Name>
1q8n_lig

>  <RI>
0

>  <Rbt.Current_Directory>
/home/itssahil/PROJECTS/Mol_Feturizer/New_Systems/rnas/1q8n

>  <Rbt.Executable>
rbdock ($Id: //depot/dev/client3/rdock/2013.1/src/exe/rbdock.cxx#4 $)

>  <Rbt.Library>
libRbt.so (2013.1, Build901 2013/11/27)

>  <Rbt.Parameter_File>
/export/apps/rDock/src/rDock_2013.1_src/data/scripts/dock_solv.prm

>  <Rbt.Receptor>
prm/pocket_docking_4.prm

>  <SCORE>
-48.34

>  <SCORE.INTER>
-50.1076

>  <SCORE.INTER.CONST>
1

>  <SCORE.INTER.POLAR>
0

>  <SCORE.INTER.ROT>
5

>  <SCORE.INTER.SOLV>
9.55729

>  <SCORE.INTER.VDW>
-43.5242

>  <SCORE.INTER.norm>
-2.00431

>  <SCORE.INTRA>
1.76763

>  <SCORE.INTRA.DIHEDRAL>
3.68373

>  <SCORE.INTRA.DIHEDRAL.0>
2.1627

>  <SCORE.INTRA.POLAR>
0

>  <SCORE.INTRA.POLAR.0>
0

>  <SCORE.INTRA.REPUL>
0

>  <SCORE.INTRA.REPUL.0>
0

>  <SCORE.INTRA.SOLV>
0.066301

>  <SCORE.INTRA.SOLV.lig_0>
-5.95779

>  <SCORE.INTRA.VDW>
-0.107387

>  <SCORE.INTRA.VDW.0>
3.81702

>  <SCORE.INTRA.norm>
0.0707052

>  <SCORE.RESTR>
0

>  <SCORE.RESTR.CAVITY>
0

>  <SCORE.RESTR.norm>
0

>  <SCORE.SYSTEM>
0

>  <SCORE.SYSTEM.CONST>
0

>  <SCORE.SYSTEM.DIHEDRAL>
0

>  <SCORE.SYSTEM.SOLV>
0

>  <SCORE.SYSTEM.norm>
0

>  <SCORE.heavy>
25

>  <SCORE.norm>
-1.9336

>  <RMSD>
1.963

$$$$
1q8n_lig
 OpenBabel11021811413D
libRbt.so/2013.1/901 2013/11/27
 25 27  0  0  0  0  0  0  0  0999 V2000
    0.5208    0.8417   -0.2302 C   0  0  0  0  0  0  0  0  0  0  0  0
    0.6560    2.0355   -1.3357 C   0  0  0  0  0  0  0  0  0  0  0  0
    1.9837   -4.6983   -1.8394 N   0  0  0  0  0  0  0  0  0  0  0  0
    0.8222    1.8114   -2.6612 C   0  0  0  0  0  0  0  0  0  0  0  0
   -1.2406    1.7357    5.4277 N   0  0  0  0  0  0  0  0  0  0  0  0
    0.9465    2.9239   -3.6311 C   0  0  0  0  0  0  0  0  0  0  0  0
    0.8929    4.2035   -3.1955 C   0  0  0  0  0  0  0  0  0  0  0  0
    0.7094    4.4648   -1.7869 C   0  0  0  0  0  0  0  0  0  0  0  0
    0.6005    3.4532   -0.9222 C   0  0  0  0  0  0  0  0  0  0  0  0
    0.9212   -0.6751   -0.6764 C   0  0  0  0  0  0  0  0  0  0  0  0
    1.2654   -0.9619   -1.9490 C   0  0  0  0  0  0  0  0  0  0  0  0
    1.6338   -2.3408   -2.3742 C   0  0  0  0  0  0  0  0  0  0  0  0
    1.6338   -3.3581   -1.4718 C   0  0  0  0  0  0  0  0  0  0  0  0
    1.2616   -3.0594   -0.0760 C   0  0  0  0  0  0  0  0  0  0  0  0
    0.9310   -1.8129    0.2893 C   0  0  0  0  0  0  0  0  0  0  0  0
   -0.0087    1.1375    1.3128 C   0  0  0  0  0  0  0  0  0  0  0  0
    0.3862    0.2104    2.4291 C   0  0  0  0  0  0  0  0  0  0  0  0
    0.0017    0.3974    3.6947 C   0  0  0  0  0  0  0  0  0  0  0  0
   -0.8430    1.5390    4.0651 C   0  0  0  0  0  0  0  0  0  0  0  0
   -1.2309    2.3982    3.0999 C   0  0  0  0  0  0  0  0  0  0  0  0
   -0.8036    2.1991    1.6742 C   0  0  0  0  0  0  0  0  0  0  0  0
    1.6364   -5.8274   -1.0314 C   0  0  0  0  0  0  0  0  0  0  0  0
    2.7036   -4.9470   -3.0499 C   0  0  0  0  0  0  0  0  0  0  0  0
   -0.8158    0.8193    6.4466 C   0  0  0  0  0  0  0  0  0  0  0  0
   -2.0686    2.8560    5.8133 C   0  0  0  0  0  0  0  0  0  0  0  0
  1  2  1  0  0  0  0
  1 10  1  0  0  0  0
  1 16  1  0  0  0  0
  2  4  2  0  0  0  0
  2  9  1  0  0  0  0
  4  6  1  0  0  0  0
  6  7  2  0  0  0  0
  7  8  1  0  0  0  0
  8  9  2  0  0  0  0
 10 11  2  0  0  0  0
 10 15  1  0  0  0  0
 11 12  1  0  0  0  0
 12 13  2  0  0  0  0
 13  3  1  0  0  0  0
 13 14  1  0  0  0  0
 14 15  2  0  0  0  0
 16 17  2  0  0  0  0
 16 21  1  0  0  0  0
 17 18  1  0  0  0  0
 18 19  2  0  0  0  0
 19  5  1  0  0  0  0
 19 20  1  0  0  0  0
 20 21  2  0  0  0  0
 22  3  1  0  0  0  0
 23  3  1  0  0  0  0
 24  5  1  0  0  0  0
 25  5  1  0  0  0  0
M  END
>  <CHROM.1>
13.62277603,-4.62367109,-155.25056329,-161.98960018,0.08024678,0.49616773
0.15635178,0.37086053,-0.12337854,1.24338020,-0.57643936

>  <Name>
1q8n_lig

>  <RI>
0

>  <Rbt.Current_Directory>
/home/itssahil/PROJECTS/Mol_Feturizer/New_Systems/rnas/1q8n

>  <Rbt.Executable>
rbdock ($Id: //depot/dev/client3/rdock/2013.1/src/exe/rbdock.cxx#4 $)

>  <Rbt.Library>
libRbt.so (2013.1, Build901 2013/11/27)

>  <Rbt.Parameter_File>
/export/apps/rDock/src/rDock_2013.1_src/data/scripts/dock_solv.prm

>  <Rbt.Receptor>
prm/pocket_docking_6.prm

>  <SCORE>
-47.7331

>  <SCORE.INTER>
-49.3329

>  <SCORE.INTER.CONST>
1

>  <SCORE.INTER.POLAR>
0

>  <SCORE.INTER.ROT>
5

>  <SCORE.INTER.SOLV>
9.62311

>  <SCORE.INTER.VDW>
-43.0296

>  <SCORE.INTER.norm>
-1.97331

>  <SCORE.INTRA>
1.59979

>  <SCORE.INTRA.DIHEDRAL>
1.22329

>  <SCORE.INTRA.DIHEDRAL.0>
2.1627

>  <SCORE.INTRA.POLAR>
0

>  <SCORE.INTRA.POLAR.0>
0

>  <SCORE.INTRA.REPUL>
0

>  <SCORE.INTRA.REPUL.0>
0

>  <SCORE.INTRA.SOLV>
0.064679

>  <SCORE.INTRA.SOLV.lig_0>
-5.95779

>  <SCORE.INTRA.VDW>
0.955804

>  <SCORE.INTRA.VDW.0>
3.81702

>  <SCORE.INTRA.norm>
0.0639916

>  <SCORE.RESTR>
0

>  <SCORE.RESTR.CAVITY>
0

>  <SCORE.RESTR.norm>
0

>  <SCORE.SYSTEM>
0

>  <SCORE.SYSTEM.CONST>
0

>  <SCORE.SYSTEM.DIHEDRAL>
0

>  <SCORE.SYSTEM.SOLV>
0

>  <SCORE.SYSTEM.norm>
0

>  <SCORE.heavy>
25

>  <SCORE.norm>
-1.90932

>  <RMSD>
1.967

$$$$
1q8n_lig
 OpenBabel11021811413D
libRbt.so/2013.1/901 2013/11/27
 25 27  0  0  0  0  0  0  0  0999 V2000
    0.9887    0.5631   -0.8388 C   0  0  0  0  0  0  0  0  0  0  0  0
    0.9696    1.9662   -1.6733 C   0  0  0  0  0  0  0  0  0  0  0  0
   -0.5986    0.6475    4.8966 N   0  0  0  0  0  0  0  0  0  0  0  0
    1.1916    2.0457   -3.0072 C   0  0  0  0  0  0  0  0  0  0  0  0
    2.5212   -4.7255   -3.2041 N   0  0  0  0  0  0  0  0  0  0  0  0
    1.1711    3.3407   -3.7259 C   0  0  0  0  0  0  0  0  0  0  0  0
    0.9238    4.4828   -3.0445 C   0  0  0  0  0  0  0  0  0  0  0  0
    0.6778    4.4199   -1.6227 C   0  0  0  0  0  0  0  0  0  0  0  0
    0.7009    3.2465   -0.9858 C   0  0  0  0  0  0  0  0  0  0  0  0
    0.5516    0.5912    0.7323 C   0  0  0  0  0  0  0  0  0  0  0  0
   -0.3257    1.5043    1.1979 C   0  0  0  0  0  0  0  0  0  0  0  0
   -0.7361    1.5448    2.6290 C   0  0  0  0  0  0  0  0  0  0  0  0
   -0.2282    0.6442    3.5122 C   0  0  0  0  0  0  0  0  0  0  0  0
    0.7305   -0.3617    3.0173 C   0  0  0  0  0  0  0  0  0  0  0  0
    1.0905   -0.3828    1.7263 C   0  0  0  0  0  0  0  0  0  0  0  0
    1.4382   -0.8670   -1.5469 C   0  0  0  0  0  0  0  0  0  0  0  0
    1.3587   -2.1472   -0.7618 C   0  0  0  0  0  0  0  0  0  0  0  0
    1.6963   -3.3329   -1.2760 C   0  0  0  0  0  0  0  0  0  0  0  0
    2.1720   -3.4469   -2.6596 C   0  0  0  0  0  0  0  0  0  0  0  0
    2.2680   -2.3270   -3.4061 C   0  0  0  0  0  0  0  0  0  0  0  0
    1.8898   -0.9889   -2.8394 C   0  0  0  0  0  0  0  0  0  0  0  0
   -1.3272    1.7273    5.4898 C   0  0  0  0  0  0  0  0  0  0  0  0
   -0.2427   -0.4522    5.7387 C   0  0  0  0  0  0  0  0  0  0  0  0
    3.3990   -4.8168   -4.3352 C   0  0  0  0  0  0  0  0  0  0  0  0
    2.0090   -5.9500   -2.6316 C   0  0  0  0  0  0  0  0  0  0  0  0
  1  2  1  0  0  0  0
  1 10  1  0  0  0  0
  1 16  1  0  0  0  0
  2  4  2  0  0  0  0
  2  9  1  0  0  0  0
  4  6  1  0  0  0  0
  6  7  2  0  0  0  0
  7  8  1  0  0  0  0
  8  9  2  0  0  0  0
 10 11  2  0  0  0  0
 10 15  1  0  0  0  0
 11 12  1  0  0  0  0
 12 13  2  0  0  0  0
 13  3  1  0  0  0  0
 13 14  1  0  0  0  0
 14 15  2  0  0  0  0
 16 17  2  0  0  0  0
 16 21  1  0  0  0  0
 17 18  1  0  0  0  0
 18 19  2  0  0  0  0
 19  5  1  0  0  0  0
 19 20  1  0  0  0  0
 20 21  2  0  0  0  0
 22  3  1  0  0  0  0
 23  3  1  0  0  0  0
 24  5  1  0  0  0  0
 25  5  1  0  0  0  0
M  END
>  <CHROM.1>
-173.68072884,28.94740157,-176.23097118,-11.48439023,-158.15798054,0.97110262
-0.18782427,-0.30349228,-0.03627234,1.25373285,-0.58731930

>  <Name>
1q8n_lig

>  <RI>
0

>  <Rbt.Current_Directory>
/home/itssahil/PROJECTS/Mol_Feturizer/New_Systems/rnas/1q8n

>  <Rbt.Executable>
rbdock ($Id: //depot/dev/client3/rdock/2013.1/src/exe/rbdock.cxx#4 $)

>  <Rbt.Library>
libRbt.so (2013.1, Build901 2013/11/27)

>  <Rbt.Parameter_File>
/export/apps/rDock/src/rDock_2013.1_src/data/scripts/dock_solv.prm

>  <Rbt.Receptor>
prm/pocket_docking_8.prm

>  <SCORE>
-48.1349

>  <SCORE.INTER>
-49.4884

>  <SCORE.INTER.CONST>
1

>  <SCORE.INTER.POLAR>
0

>  <SCORE.INTER.ROT>
5

>  <SCORE.INTER.SOLV>
9.64201

>  <SCORE.INTER.VDW>
-43.1396

>  <SCORE.INTER.norm>
-1.97954

>  <SCORE.INTRA>
1.35347

>  <SCORE.INTRA.DIHEDRAL>
2.27423

>  <SCORE.INTRA.DIHEDRAL.0>
2.1627

>  <SCORE.INTRA.POLAR>
0

>  <SCORE.INTRA.POLAR.0>
0

>  <SCORE.INTRA.REPUL>
0

>  <SCORE.INTRA.REPUL.0>
0

>  <SCORE.INTRA.SOLV>
0.0623498

>  <SCORE.INTRA.SOLV.lig_0>
-5.95779

>  <SCORE.INTRA.VDW>
0.185186

>  <SCORE.INTRA.VDW.0>
3.81702

>  <SCORE.INTRA.norm>
0.054139

>  <SCORE.RESTR>
0

>  <SCORE.RESTR.CAVITY>
0

>  <SCORE.RESTR.norm>
0

>  <SCORE.SYSTEM>
0

>  <SCORE.SYSTEM.CONST>
0

>  <SCORE.SYSTEM.DIHEDRAL>
0

>  <SCORE.SYSTEM.SOLV>
0

>  <SCORE.SYSTEM.norm>
0

>  <SCORE.heavy>
25

>  <SCORE.norm>
-1.9254

>  <RMSD>
1.968

$$$$
1q8n_lig
 OpenBabel11021811413D
libRbt.so/2013.1/901 2013/11/27
 25 27  0  0  0  0  0  0  0  0999 V2000
    0.9553    0.6137   -0.7427 C   0  0  0  0  0  0  0  0  0  0  0  0
    0.9411    2.0285   -1.5572 C   0  0  0  0  0  0  0  0  0  0  0  0
   -0.8257    0.5870    4.9361 N   0  0  0  0  0  0  0  0  0  0  0  0
    0.7127    3.2273   -0.9693 C   0  0  0  0  0  0  0  0  0  0  0  0
    2.6373   -4.6150   -3.1394 N   0  0  0  0  0  0  0  0  0  0  0  0
    0.7027    4.4882   -1.7463 C   0  0  0  0  0  0  0  0  0  0  0  0
    0.9278    4.4569   -3.0799 C   0  0  0  0  0  0  0  0  0  0  0  0
    1.1801    3.1899   -3.7257 C   0  0  0  0  0  0  0  0  0  0  0  0
    1.1847    2.0598   -3.0145 C   0  0  0  0  0  0  0  0  0  0  0  0
    0.4657    0.6115    0.8131 C   0  0  0  0  0  0  0  0  0  0  0  0
   -0.3359    1.5838    1.2954 C   0  0  0  0  0  0  0  0  0  0  0  0
   -0.7926    1.5979    2.7128 C   0  0  0  0  0  0  0  0  0  0  0  0
   -0.4069    0.6116    3.5659 C   0  0  0  0  0  0  0  0  0  0  0  0
    0.4677   -0.4595    3.0523 C   0  0  0  0  0  0  0  0  0  0  0  0
    0.8710   -0.4559    1.7741 C   0  0  0  0  0  0  0  0  0  0  0  0
    1.4516   -0.7985   -1.4556 C   0  0  0  0  0  0  0  0  0  0  0  0
    1.2813   -2.1033   -0.7277 C   0  0  0  0  0  0  0  0  0  0  0  0
    1.6509   -3.2761   -1.2495 C   0  0  0  0  0  0  0  0  0  0  0  0
    2.2545   -3.3503   -2.5851 C   0  0  0  0  0  0  0  0  0  0  0  0
    2.4354   -2.2073   -3.2789 C   0  0  0  0  0  0  0  0  0  0  0  0
    2.0224   -0.8833   -2.7032 C   0  0  0  0  0  0  0  0  0  0  0  0
   -1.2182    1.7721    5.6363 C   0  0  0  0  0  0  0  0  0  0  0  0
   -0.8640   -0.6492    5.6541 C   0  0  0  0  0  0  0  0  0  0  0  0
    3.6264   -4.6828   -4.1765 C   0  0  0  0  0  0  0  0  0  0  0  0
    2.0483   -5.8489   -2.6703 C   0  0  0  0  0  0  0  0  0  0  0  0
  1  2  1  0  0  0  0
  1 10  1  0  0  0  0
  1 16  1  0  0  0  0
  2  4  2  0  0  0  0
  2  9  1  0  0  0  0
  4  6  1  0  0  0  0
  6  7  2  0  0  0  0
  7  8  1  0  0  0  0
  8  9  2  0  0  0  0
 10 11  2  0  0  0  0
 10 15  1  0  0  0  0
 11 12  1  0  0  0  0
 12 13  2  0  0  0  0
 13  3  1  0  0  0  0
 13 14  1  0  0  0  0
 14 15  2  0  0  0  0
 16 17  2  0  0  0  0
 16 21  1  0  0  0  0
 17 18  1  0  0  0  0
 18 19  2  0  0  0  0
 19  5  1  0  0  0  0
 19 20  1  0  0  0  0
 20 21  2  0  0  0  0
 22  3  1  0  0  0  0
 23  3  1  0  0  0  0
 24  5  1  0  0  0  0
 25  5  1  0  0  0  0
M  END
>  <CHROM.1>
8.89745421,22.14611647,-172.12171144,-24.29613906,-157.58594872,0.93377289
-0.16526785,-0.25460547,-3.09315137,-1.22005419,2.60601500

>  <Name>
1q8n_lig

>  <RI>
0

>  <Rbt.Current_Directory>
/home/itssahil/PROJECTS/Mol_Feturizer/New_Systems/rnas/1q8n

>  <Rbt.Executable>
rbdock ($Id: //depot/dev/client3/rdock/2013.1/src/exe/rbdock.cxx#4 $)

>  <Rbt.Library>
libRbt.so (2013.1, Build901 2013/11/27)

>  <Rbt.Parameter_File>
/export/apps/rDock/src/rDock_2013.1_src/data/scripts/dock_solv.prm

>  <Rbt.Receptor>
prm/pocket_docking_6.prm

>  <SCORE>
-48.3715

>  <SCORE.INTER>
-50.1892

>  <SCORE.INTER.CONST>
1

>  <SCORE.INTER.POLAR>
0

>  <SCORE.INTER.ROT>
5

>  <SCORE.INTER.SOLV>
9.58433

>  <SCORE.INTER.VDW>
-43.5876

>  <SCORE.INTER.norm>
-2.00757

>  <SCORE.INTRA>
1.8177

>  <SCORE.INTRA.DIHEDRAL>
4.02294

>  <SCORE.INTRA.DIHEDRAL.0>
2.1627

>  <SCORE.INTRA.POLAR>
0

>  <SCORE.INTRA.POLAR.0>
0

>  <SCORE.INTRA.REPUL>
0

>  <SCORE.INTRA.REPUL.0>
0

>  <SCORE.INTRA.SOLV>
0.0660463

>  <SCORE.INTRA.SOLV.lig_0>
-5.95779

>  <SCORE.INTRA.VDW>
-0.226792

>  <SCORE.INTRA.VDW.0>
3.81702

>  <SCORE.INTRA.norm>
0.072708

>  <SCORE.RESTR>
0

>  <SCORE.RESTR.CAVITY>
0

>  <SCORE.RESTR.norm>
0

>  <SCORE.SYSTEM>
0

>  <SCORE.SYSTEM.CONST>
0

>  <SCORE.SYSTEM.DIHEDRAL>
0

>  <SCORE.SYSTEM.SOLV>
0

>  <SCORE.SYSTEM.norm>
0

>  <SCORE.heavy>
25

>  <SCORE.norm>
-1.93486

>  <RMSD>
1.969

$$$$
1q8n_lig
 OpenBabel11021811403D
libRbt.so/2013.1/901 2013/11/27
 25 27  0  0  0  0  0  0  0  0999 V2000
    1.0419    0.5233   -0.8711 C   0  0  0  0  0  0  0  0  0  0  0  0
    1.0015    1.9249   -1.7073 C   0  0  0  0  0  0  0  0  0  0  0  0
   -0.6429    0.5712    4.8369 N   0  0  0  0  0  0  0  0  0  0  0  0
    1.2166    2.0053   -3.0423 C   0  0  0  0  0  0  0  0  0  0  0  0
    2.7138   -4.7283   -3.2244 N   0  0  0  0  0  0  0  0  0  0  0  0
    1.1766    3.2990   -3.7626 C   0  0  0  0  0  0  0  0  0  0  0  0
    0.9179    4.4389   -3.0816 C   0  0  0  0  0  0  0  0  0  0  0  0
    0.6790    4.3748   -1.6587 C   0  0  0  0  0  0  0  0  0  0  0  0
    0.7196    3.2027   -1.0203 C   0  0  0  0  0  0  0  0  0  0  0  0
    0.5785    0.5415    0.6926 C   0  0  0  0  0  0  0  0  0  0  0  0
   -0.2348    1.5065    1.1698 C   0  0  0  0  0  0  0  0  0  0  0  0
   -0.6680    1.5389    2.5943 C   0  0  0  0  0  0  0  0  0  0  0  0
   -0.2477    0.5776    3.4594 C   0  0  0  0  0  0  0  0  0  0  0  0
    0.6403   -0.4853    2.9516 C   0  0  0  0  0  0  0  0  0  0  0  0
    1.0220   -0.4984    1.6668 C   0  0  0  0  0  0  0  0  0  0  0  0
    1.5386   -0.8956   -1.5702 C   0  0  0  0  0  0  0  0  0  0  0  0
    1.3012   -2.2009   -0.8621 C   0  0  0  0  0  0  0  0  0  0  0  0
    1.6677   -3.3788   -1.3746 C   0  0  0  0  0  0  0  0  0  0  0  0
    2.3346   -3.4585   -2.6794 C   0  0  0  0  0  0  0  0  0  0  0  0
    2.5772   -2.3155   -3.3541 C   0  0  0  0  0  0  0  0  0  0  0  0
    2.1682   -0.9858   -2.7887 C   0  0  0  0  0  0  0  0  0  0  0  0
   -1.1039    1.7501    5.5047 C   0  0  0  0  0  0  0  0  0  0  0  0
   -0.5864   -0.6399    5.5954 C   0  0  0  0  0  0  0  0  0  0  0  0
    2.0710   -5.9305   -2.7771 C   0  0  0  0  0  0  0  0  0  0  0  0
    3.7411   -4.8342   -4.2358 C   0  0  0  0  0  0  0  0  0  0  0  0
  1  2  1  0  0  0  0
  1 10  1  0  0  0  0
  1 16  1  0  0  0  0
  2  4  2  0  0  0  0
  2  9  1  0  0  0  0
  4  6  1  0  0  0  0
  6  7  2  0  0  0  0
  7  8  1  0  0  0  0
  8  9  2  0  0  0  0
 10 11  2  0  0  0  0
 10 15  1  0  0  0  0
 11 12  1  0  0  0  0
 12 13  2  0  0  0  0
 13  3  1  0  0  0  0
 13 14  1  0  0  0  0
 14 15  2  0  0  0  0
 16 17  2  0  0  0  0
 16 21  1  0  0  0  0
 17 18  1  0  0  0  0
 18 19  2  0  0  0  0
 19  5  1  0  0  0  0
 19 20  1  0  0  0  0
 20 21  2  0  0  0  0
 22  3  1  0  0  0  0
 23  3  1  0  0  0  0
 24  5  1  0  0  0  0
 25  5  1  0  0  0  0
M  END
>  <CHROM.1>
-172.29141230,22.85710960,-167.67584045,-21.49410234,21.69029542,1.02490207
-0.22872517,-0.34052047,-3.09356338,-1.22981741,2.56725264

>  <Name>
1q8n_lig

>  <RI>
0

>  <Rbt.Current_Directory>
/home/itssahil/PROJECTS/Mol_Feturizer/New_Systems/rnas/1q8n

>  <Rbt.Executable>
rbdock ($Id: //depot/dev/client3/rdock/2013.1/src/exe/rbdock.cxx#4 $)

>  <Rbt.Library>
libRbt.so (2013.1, Build901 2013/11/27)

>  <Rbt.Parameter_File>
/export/apps/rDock/src/rDock_2013.1_src/data/scripts/dock_solv.prm

>  <Rbt.Receptor>
prm/blind_docking_60.prm

>  <SCORE>
-49.141

>  <SCORE.INTER>
-50.792

>  <SCORE.INTER.CONST>
1

>  <SCORE.INTER.POLAR>
0

>  <SCORE.INTER.ROT>
5

>  <SCORE.INTER.SOLV>
9.68162

>  <SCORE.INTER.VDW>
-44.0219

>  <SCORE.INTER.norm>
-2.03168

>  <SCORE.INTRA>
1.65103

>  <SCORE.INTRA.DIHEDRAL>
3.46234

>  <SCORE.INTRA.DIHEDRAL.0>
2.1627

>  <SCORE.INTRA.POLAR>
0

>  <SCORE.INTRA.POLAR.0>
0

>  <SCORE.INTRA.REPUL>
0

>  <SCORE.INTRA.REPUL.0>
0

>  <SCORE.INTRA.SOLV>
0.0641109

>  <SCORE.INTRA.SOLV.lig_0>
-5.95779

>  <SCORE.INTRA.VDW>
-0.112192

>  <SCORE.INTRA.VDW.0>
3.81702

>  <SCORE.INTRA.norm>
0.0660413

>  <SCORE.RESTR>
0

>  <SCORE.RESTR.CAVITY>
0

>  <SCORE.RESTR.norm>
0

>  <SCORE.SYSTEM>
0

>  <SCORE.SYSTEM.CONST>
0

>  <SCORE.SYSTEM.DIHEDRAL>
0

>  <SCORE.SYSTEM.SOLV>
0

>  <SCORE.SYSTEM.norm>
0

>  <SCORE.heavy>
25

>  <SCORE.norm>
-1.96564

>  <RMSD>
1.972

$$$$
1q8n_lig
 OpenBabel11021811403D
libRbt.so/2013.1/901 2013/11/27
 25 27  0  0  0  0  0  0  0  0999 V2000
    0.9585    0.6120   -0.7436 C   0  0  0  0  0  0  0  0  0  0  0  0
    0.9506    2.0291   -1.5541 C   0  0  0  0  0  0  0  0  0  0  0  0
   -0.8463    0.5727    4.9277 N   0  0  0  0  0  0  0  0  0  0  0  0
    0.7119    3.2256   -0.9655 C   0  0  0  0  0  0  0  0  0  0  0  0
    2.6384   -4.6134   -3.1491 N   0  0  0  0  0  0  0  0  0  0  0  0
    0.7081    4.4887   -1.7390 C   0  0  0  0  0  0  0  0  0  0  0  0
    0.9496    4.4619   -3.0697 C   0  0  0  0  0  0  0  0  0  0  0  0
    1.2132    3.1975   -3.7161 C   0  0  0  0  0  0  0  0  0  0  0  0
    1.2120    2.0653   -3.0082 C   0  0  0  0  0  0  0  0  0  0  0  0
    0.4625    0.6064    0.8102 C   0  0  0  0  0  0  0  0  0  0  0  0
   -0.3240    1.5888    1.2968 C   0  0  0  0  0  0  0  0  0  0  0  0
   -0.7863    1.6000    2.7124 C   0  0  0  0  0  0  0  0  0  0  0  0
   -0.4214    0.6005    3.5593 C   0  0  0  0  0  0  0  0  0  0  0  0
    0.4365   -0.4817    3.0410 C   0  0  0  0  0  0  0  0  0  0  0  0
    0.8452   -0.4753    1.7645 C   0  0  0  0  0  0  0  0  0  0  0  0
    1.4549   -0.7992   -1.4585 C   0  0  0  0  0  0  0  0  0  0  0  0
    1.2710   -2.1067   -0.7386 C   0  0  0  0  0  0  0  0  0  0  0  0
    1.6399   -3.2788   -1.2625 C   0  0  0  0  0  0  0  0  0  0  0  0
    2.2563   -3.3495   -2.5925 C   0  0  0  0  0  0  0  0  0  0  0  0
    2.4498   -2.2040   -3.2788 C   0  0  0  0  0  0  0  0  0  0  0  0
    2.0376   -0.8808   -2.7007 C   0  0  0  0  0  0  0  0  0  0  0  0
   -1.2168    1.7595    5.6367 C   0  0  0  0  0  0  0  0  0  0  0  0
   -0.9133   -0.6687    5.6345 C   0  0  0  0  0  0  0  0  0  0  0  0
    3.6253   -4.6796   -4.1884 C   0  0  0  0  0  0  0  0  0  0  0  0
    2.0507   -5.8480   -2.6803 C   0  0  0  0  0  0  0  0  0  0  0  0
  1  2  1  0  0  0  0
  1 10  1  0  0  0  0
  1 16  1  0  0  0  0
  2  4  2  0  0  0  0
  2  9  1  0  0  0  0
  4  6  1  0  0  0  0
  6  7  2  0  0  0  0
  7  8  1  0  0  0  0
  8  9  2  0  0  0  0
 10 11  2  0  0  0  0
 10 15  1  0  0  0  0
 11 12  1  0  0  0  0
 12 13  2  0  0  0  0
 13  3  1  0  0  0  0
 13 14  1  0  0  0  0
 14 15  2  0  0  0  0
 16 17  2  0  0  0  0
 16 21  1  0  0  0  0
 17 18  1  0  0  0  0
 18 19  2  0  0  0  0
 19  5  1  0  0  0  0
 19 20  1  0  0  0  0
 20 21  2  0  0  0  0
 22  3  1  0  0  0  0
 23  3  1  0  0  0  0
 24  5  1  0  0  0  0
 25  5  1  0  0  0  0
M  END
>  <CHROM.1>
8.36101486,21.22036169,-171.73395190,-24.50158091,-158.36385173,0.93305815
-0.16840931,-0.25804888,-3.07880067,-1.21757004,2.62270266

>  <Name>
1q8n_lig

>  <RI>
0

>  <Rbt.Current_Directory>
/home/itssahil/PROJECTS/Mol_Feturizer/New_Systems/rnas/1q8n

>  <Rbt.Executable>
rbdock ($Id: //depot/dev/client3/rdock/2013.1/src/exe/rbdock.cxx#4 $)

>  <Rbt.Library>
libRbt.so (2013.1, Build901 2013/11/27)

>  <Rbt.Parameter_File>
/export/apps/rDock/src/rDock_2013.1_src/data/scripts/dock_solv.prm

>  <Rbt.Receptor>
prm/blind_docking_100.prm

>  <SCORE>
-48.379

>  <SCORE.INTER>
-50.2279

>  <SCORE.INTER.CONST>
1

>  <SCORE.INTER.POLAR>
0

>  <SCORE.INTER.ROT>
5

>  <SCORE.INTER.SOLV>
9.59843

>  <SCORE.INTER.VDW>
-43.6181

>  <SCORE.INTER.norm>
-2.00912

>  <SCORE.INTRA>
1.84885

>  <SCORE.INTRA.DIHEDRAL>
3.93673

>  <SCORE.INTRA.DIHEDRAL.0>
2.1627

>  <SCORE.INTRA.POLAR>
0

>  <SCORE.INTRA.POLAR.0>
0

>  <SCORE.INTRA.REPUL>
0

>  <SCORE.INTRA.REPUL.0>
0

>  <SCORE.INTRA.SOLV>
0.0668464

>  <SCORE.INTRA.SOLV.lig_0>
-5.95779

>  <SCORE.INTRA.VDW>
-0.152939

>  <SCORE.INTRA.VDW.0>
3.81702

>  <SCORE.INTRA.norm>
0.0739539

>  <SCORE.RESTR>
0

>  <SCORE.RESTR.CAVITY>
0

>  <SCORE.RESTR.norm>
0

>  <SCORE.SYSTEM>
0

>  <SCORE.SYSTEM.CONST>
0

>  <SCORE.SYSTEM.DIHEDRAL>
0

>  <SCORE.SYSTEM.SOLV>
0

>  <SCORE.SYSTEM.norm>
0

>  <SCORE.heavy>
25

>  <SCORE.norm>
-1.93516

>  <RMSD>
1.974

$$$$
1q8n_lig
 OpenBabel11021811403D
libRbt.so/2013.1/901 2013/11/27
 25 27  0  0  0  0  0  0  0  0999 V2000
    0.9679    0.5967   -0.7507 C   0  0  0  0  0  0  0  0  0  0  0  0
    0.9477    2.0170   -1.5555 C   0  0  0  0  0  0  0  0  0  0  0  0
   -0.7922    0.5670    4.9346 N   0  0  0  0  0  0  0  0  0  0  0  0
    0.7005    3.2092   -0.9616 C   0  0  0  0  0  0  0  0  0  0  0  0
    2.6574   -4.6130   -3.1834 N   0  0  0  0  0  0  0  0  0  0  0  0
    0.6858    4.4754   -1.7299 C   0  0  0  0  0  0  0  0  0  0  0  0
    0.9255    4.4559   -3.0611 C   0  0  0  0  0  0  0  0  0  0  0  0
    1.1980    3.1963   -3.7130 C   0  0  0  0  0  0  0  0  0  0  0  0
    1.2067    2.0612   -3.0098 C   0  0  0  0  0  0  0  0  0  0  0  0
    0.4871    0.5834    0.8077 C   0  0  0  0  0  0  0  0  0  0  0  0
    0.8627   -0.4039    1.6471 C   0  0  0  0  0  0  0  0  0  0  0  0
    0.4332   -0.4322    3.0728 C   0  0  0  0  0  0  0  0  0  0  0  0
   -0.3587    0.5558    3.5687 C   0  0  0  0  0  0  0  0  0  0  0  0
   -0.7756    1.6433    2.6634 C   0  0  0  0  0  0  0  0  0  0  0  0
   -0.3815    1.6523    1.3823 C   0  0  0  0  0  0  0  0  0  0  0  0
    1.4616   -0.8100   -1.4761 C   0  0  0  0  0  0  0  0  0  0  0  0
    1.3858   -2.1076   -0.7197 C   0  0  0  0  0  0  0  0  0  0  0  0
    1.7582   -3.2761   -1.2491 C   0  0  0  0  0  0  0  0  0  0  0  0
    2.2709   -3.3525   -2.6220 C   0  0  0  0  0  0  0  0  0  0  0  0
    2.3652   -2.2158   -3.3428 C   0  0  0  0  0  0  0  0  0  0  0  0
    1.9481   -0.8967   -2.7588 C   0  0  0  0  0  0  0  0  0  0  0  0
   -1.1927    1.7698    5.5990 C   0  0  0  0  0  0  0  0  0  0  0  0
   -0.8376   -0.6499    5.6844 C   0  0  0  0  0  0  0  0  0  0  0  0
    3.6473   -4.6722   -4.2202 C   0  0  0  0  0  0  0  0  0  0  0  0
    2.0712   -5.8511   -2.7219 C   0  0  0  0  0  0  0  0  0  0  0  0
  1  2  1  0  0  0  0
  1 10  1  0  0  0  0
  1 16  1  0  0  0  0
  2  4  2  0  0  0  0
  2  9  1  0  0  0  0
  4  6  1  0  0  0  0
  6  7  2  0  0  0  0
  7  8  1  0  0  0  0
  8  9  2  0  0  0  0
 10 11  2  0  0  0  0
 10 15  1  0  0  0  0
 11 12  1  0  0  0  0
 12 13  2  0  0  0  0
 13  3  1  0  0  0  0
 13 14  1  0  0  0  0
 14 15  2  0  0  0  0
 16 17  2  0  0  0  0
 16 21  1  0  0  0  0
 17 18  1  0  0  0  0
 18 19  2  0  0  0  0
 19  5  1  0  0  0  0
 19 20  1  0  0  0  0
 20 21  2  0  0  0  0
 22  3  1  0  0  0  0
 23  3  1  0  0  0  0
 24  5  1  0  0  0  0
 25  5  1  0  0  0  0
M  END
>  <CHROM.1>
7.81314762,-158.57524410,-176.38456415,156.97399965,-153.06404445,0.94479804
-0.16480278,-0.26834431,-3.10038814,-1.22143427,2.59667636

>  <Name>
1q8n_lig

>  <RI>
0

>  <Rbt.Current_Directory>
/home/itssahil/PROJECTS/Mol_Feturizer/New_Systems/rnas/1q8n

>  <Rbt.Executable>
rbdock ($Id: //depot/dev/client3/rdock/2013.1/src/exe/rbdock.cxx#4 $)

>  <Rbt.Library>
libRbt.so (2013.1, Build901 2013/11/27)

>  <Rbt.Parameter_File>
/export/apps/rDock/src/rDock_2013.1_src/data/scripts/dock_solv.prm

>  <Rbt.Receptor>
prm/blind_docking_100.prm

>  <SCORE>
-48.5017

>  <SCORE.INTER>
-50.5321

>  <SCORE.INTER.CONST>
1

>  <SCORE.INTER.POLAR>
0

>  <SCORE.INTER.ROT>
5

>  <SCORE.INTER.SOLV>
9.61115

>  <SCORE.INTER.VDW>
-43.8251

>  <SCORE.INTER.norm>
-2.02129

>  <SCORE.INTRA>
2.03041

>  <SCORE.INTRA.DIHEDRAL>
4.5812

>  <SCORE.INTRA.DIHEDRAL.0>
2.1627

>  <SCORE.INTRA.POLAR>
0

>  <SCORE.INTRA.POLAR.0>
0

>  <SCORE.INTRA.REPUL>
0

>  <SCORE.INTRA.REPUL.0>
0

>  <SCORE.INTRA.SOLV>
0.0679737

>  <SCORE.INTRA.SOLV.lig_0>
-5.95779

>  <SCORE.INTRA.VDW>
-0.294171

>  <SCORE.INTRA.VDW.0>
3.81702

>  <SCORE.INTRA.norm>
0.0812165

>  <SCORE.RESTR>
0

>  <SCORE.RESTR.CAVITY>
0

>  <SCORE.RESTR.norm>
0

>  <SCORE.SYSTEM>
0

>  <SCORE.SYSTEM.CONST>
0

>  <SCORE.SYSTEM.DIHEDRAL>
0

>  <SCORE.SYSTEM.SOLV>
0

>  <SCORE.SYSTEM.norm>
0

>  <SCORE.heavy>
25

>  <SCORE.norm>
-1.94007

>  <RMSD>
1.976

$$$$
1q8n_lig
 OpenBabel11021811413D
libRbt.so/2013.1/901 2013/11/27
 25 27  0  0  0  0  0  0  0  0999 V2000
    0.9574    0.6099   -0.7374 C   0  0  0  0  0  0  0  0  0  0  0  0
    0.9449    2.0250   -1.5515 C   0  0  0  0  0  0  0  0  0  0  0  0
   -0.8209    0.5840    4.9423 N   0  0  0  0  0  0  0  0  0  0  0  0
    0.7029    3.2222   -0.9657 C   0  0  0  0  0  0  0  0  0  0  0  0
    2.6352   -4.6204   -3.1336 N   0  0  0  0  0  0  0  0  0  0  0  0
    0.6951    4.4834   -1.7423 C   0  0  0  0  0  0  0  0  0  0  0  0
    0.9360    4.4540   -3.0731 C   0  0  0  0  0  0  0  0  0  0  0  0
    1.2031    3.1888   -3.7165 C   0  0  0  0  0  0  0  0  0  0  0  0
    1.2055    2.0583   -3.0058 C   0  0  0  0  0  0  0  0  0  0  0  0
    0.4686    0.6080    0.8186 C   0  0  0  0  0  0  0  0  0  0  0  0
   -0.3174    1.5903    1.3060 C   0  0  0  0  0  0  0  0  0  0  0  0
   -0.7732    1.6048    2.7237 C   0  0  0  0  0  0  0  0  0  0  0  0
   -0.4025    0.6085    3.5719 C   0  0  0  0  0  0  0  0  0  0  0  0
    0.4550   -0.4737    3.0527 C   0  0  0  0  0  0  0  0  0  0  0  0
    0.8577   -0.4702    1.7743 C   0  0  0  0  0  0  0  0  0  0  0  0
    1.4511   -0.8028   -1.4511 C   0  0  0  0  0  0  0  0  0  0  0  0
    1.3084   -2.1039   -0.7107 C   0  0  0  0  0  0  0  0  0  0  0  0
    1.6774   -3.2770   -1.2322 C   0  0  0  0  0  0  0  0  0  0  0  0
    2.2529   -3.3553   -2.5800 C   0  0  0  0  0  0  0  0  0  0  0  0
    2.4085   -2.2156   -3.2853 C   0  0  0  0  0  0  0  0  0  0  0  0
    1.9958   -0.8913   -2.7100 C   0  0  0  0  0  0  0  0  0  0  0  0
   -1.2094    1.7695    5.6437 C   0  0  0  0  0  0  0  0  0  0  0  0
   -0.8629   -0.6528    5.6590 C   0  0  0  0  0  0  0  0  0  0  0  0
    2.0432   -5.8335   -2.6473 C   0  0  0  0  0  0  0  0  0  0  0  0
    3.6150   -4.7107   -4.1925 C   0  0  0  0  0  0  0  0  0  0  0  0
  1  2  1  0  0  0  0
  1 10  1  0  0  0  0
  1 16  1  0  0  0  0
  2  4  2  0  0  0  0
  2  9  1  0  0  0  0
  4  6  1  0  0  0  0
  6  7  2  0  0  0  0
  7  8  1  0  0  0  0
  8  9  2  0  0  0  0
 10 11  2  0  0  0  0
 10 15  1  0  0  0  0
 11 12  1  0  0  0  0
 12 13  2  0  0  0  0
 13  3  1  0  0  0  0
 13 14  1  0  0  0  0
 14 15  2  0  0  0  0
 16 17  2  0  0  0  0
 16 21  1  0  0  0  0
 17 18  1  0  0  0  0
 18 19  2  0  0  0  0
 19  5  1  0  0  0  0
 19 20  1  0  0  0  0
 20 21  2  0  0  0  0
 22  3  1  0  0  0  0
 23  3  1  0  0  0  0
 24  5  1  0  0  0  0
 25  5  1  0  0  0  0
M  END
>  <CHROM.1>
8.08255413,21.30115091,-173.52903807,-23.55061490,23.16425389,0.93583123
-0.16922892,-0.24905631,-3.09174918,-1.22102853,2.60759240

>  <Name>
1q8n_lig

>  <RI>
0

>  <Rbt.Current_Directory>
/home/itssahil/PROJECTS/Mol_Feturizer/New_Systems/rnas/1q8n

>  <Rbt.Executable>
rbdock ($Id: //depot/dev/client3/rdock/2013.1/src/exe/rbdock.cxx#4 $)

>  <Rbt.Library>
libRbt.so (2013.1, Build901 2013/11/27)

>  <Rbt.Parameter_File>
/export/apps/rDock/src/rDock_2013.1_src/data/scripts/dock_solv.prm

>  <Rbt.Receptor>
prm/pocket_docking_7.prm

>  <SCORE>
-48.4511

>  <SCORE.INTER>
-50.3005

>  <SCORE.INTER.CONST>
1

>  <SCORE.INTER.POLAR>
0

>  <SCORE.INTER.ROT>
5

>  <SCORE.INTER.SOLV>
9.583

>  <SCORE.INTER.VDW>
-43.6614

>  <SCORE.INTER.norm>
-2.01202

>  <SCORE.INTRA>
1.84946

>  <SCORE.INTRA.DIHEDRAL>
4.01906

>  <SCORE.INTRA.DIHEDRAL.0>
2.1627

>  <SCORE.INTRA.POLAR>
0

>  <SCORE.INTRA.POLAR.0>
0

>  <SCORE.INTRA.REPUL>
0

>  <SCORE.INTRA.REPUL.0>
0

>  <SCORE.INTRA.SOLV>
0.0675416

>  <SCORE.INTRA.SOLV.lig_0>
-5.95779

>  <SCORE.INTRA.VDW>
-0.193837

>  <SCORE.INTRA.VDW.0>
3.81702

>  <SCORE.INTRA.norm>
0.0739785

>  <SCORE.RESTR>
0

>  <SCORE.RESTR.CAVITY>
0

>  <SCORE.RESTR.norm>
0

>  <SCORE.SYSTEM>
0

>  <SCORE.SYSTEM.CONST>
0

>  <SCORE.SYSTEM.DIHEDRAL>
0

>  <SCORE.SYSTEM.SOLV>
0

>  <SCORE.SYSTEM.norm>
0

>  <SCORE.heavy>
25

>  <SCORE.norm>
-1.93804

>  <RMSD>
1.977

$$$$
1q8n_lig
 OpenBabel11021811413D
libRbt.so/2013.1/901 2013/11/27
 25 27  0  0  0  0  0  0  0  0999 V2000
    0.9904    0.5629   -0.7977 C   0  0  0  0  0  0  0  0  0  0  0  0
    0.9521    1.9888   -1.5919 C   0  0  0  0  0  0  0  0  0  0  0  0
   -0.8000    0.4627    4.8773 N   0  0  0  0  0  0  0  0  0  0  0  0
    0.7343    3.1785   -0.9820 C   0  0  0  0  0  0  0  0  0  0  0  0
    2.7456   -4.6019   -3.2790 N   0  0  0  0  0  0  0  0  0  0  0  0
    0.7016    4.4501   -1.7410 C   0  0  0  0  0  0  0  0  0  0  0  0
    0.8944    4.4379   -3.0799 C   0  0  0  0  0  0  0  0  0  0  0  0
    1.1350    3.1809   -3.7492 C   0  0  0  0  0  0  0  0  0  0  0  0
    1.1602    2.0411   -3.0541 C   0  0  0  0  0  0  0  0  0  0  0  0
    0.5010    0.5302    0.7578 C   0  0  0  0  0  0  0  0  0  0  0  0
    0.8371   -0.4891    1.5754 C   0  0  0  0  0  0  0  0  0  0  0  0
    0.3993   -0.5355    2.9981 C   0  0  0  0  0  0  0  0  0  0  0  0
   -0.3598    0.4681    3.5136 C   0  0  0  0  0  0  0  0  0  0  0  0
   -0.7334    1.5904    2.6322 C   0  0  0  0  0  0  0  0  0  0  0  0
   -0.3323    1.6155    1.3535 C   0  0  0  0  0  0  0  0  0  0  0  0
    1.5104   -0.8303   -1.5308 C   0  0  0  0  0  0  0  0  0  0  0  0
    1.2775   -2.1577   -0.8635 C   0  0  0  0  0  0  0  0  0  0  0  0
    1.6626   -3.3166   -1.4048 C   0  0  0  0  0  0  0  0  0  0  0  0
    2.3466   -3.3521   -2.7028 C   0  0  0  0  0  0  0  0  0  0  0  0
    2.5858   -2.1877   -3.3412 C   0  0  0  0  0  0  0  0  0  0  0  0
    2.1562   -0.8790   -2.7432 C   0  0  0  0  0  0  0  0  0  0  0  0
   -0.8844   -0.7405    5.6479 C   0  0  0  0  0  0  0  0  0  0  0  0
   -1.1731    1.6860    5.5172 C   0  0  0  0  0  0  0  0  0  0  0  0
    3.7921   -4.6472   -4.2595 C   0  0  0  0  0  0  0  0  0  0  0  0
    2.1158   -5.8431   -2.8888 C   0  0  0  0  0  0  0  0  0  0  0  0
  1  2  1  0  0  0  0
  1 10  1  0  0  0  0
  1 16  1  0  0  0  0
  2  4  2  0  0  0  0
  2  9  1  0  0  0  0
  4  6  1  0  0  0  0
  6  7  2  0  0  0  0
  7  8  1  0  0  0  0
  8  9  2  0  0  0  0
 10 11  2  0  0  0  0
 10 15  1  0  0  0  0
 11 12  1  0  0  0  0
 12 13  2  0  0  0  0
 13  3  1  0  0  0  0
 13 14  1  0  0  0  0
 14 15  2  0  0  0  0
 16 17  2  0  0  0  0
 16 21  1  0  0  0  0
 17 18  1  0  0  0  0
 18 19  2  0  0  0  0
 19  5  1  0  0  0  0
 19 20  1  0  0  0  0
 20 21  2  0  0  0  0
 22  3  1  0  0  0  0
 23  3  1  0  0  0  0
 24  5  1  0  0  0  0
 25  5  1  0  0  0  0
M  END
>  <CHROM.1>
10.48996603,-161.65059185,-167.94282007,-21.85566097,-157.85490970,0.96815698
-0.20040522,-0.32589582,-3.10639486,-1.21155629,2.59996342

>  <Name>
1q8n_lig

>  <RI>
0

>  <Rbt.Current_Directory>
/home/itssahil/PROJECTS/Mol_Feturizer/New_Systems/rnas/1q8n

>  <Rbt.Executable>
rbdock ($Id: //depot/dev/client3/rdock/2013.1/src/exe/rbdock.cxx#4 $)

>  <Rbt.Library>
libRbt.so (2013.1, Build901 2013/11/27)

>  <Rbt.Parameter_File>
/export/apps/rDock/src/rDock_2013.1_src/data/scripts/dock_solv.prm

>  <Rbt.Receptor>
prm/pocket_docking_6.prm

>  <SCORE>
-48.5737

>  <SCORE.INTER>
-50.3107

>  <SCORE.INTER.CONST>
1

>  <SCORE.INTER.POLAR>
0

>  <SCORE.INTER.ROT>
5

>  <SCORE.INTER.SOLV>
9.55772

>  <SCORE.INTER.VDW>
-43.6597

>  <SCORE.INTER.norm>
-2.01243

>  <SCORE.INTRA>
1.73702

>  <SCORE.INTRA.DIHEDRAL>
3.58969

>  <SCORE.INTRA.DIHEDRAL.0>
2.1627

>  <SCORE.INTRA.POLAR>
0

>  <SCORE.INTRA.POLAR.0>
0

>  <SCORE.INTRA.REPUL>
0

>  <SCORE.INTRA.REPUL.0>
0

>  <SCORE.INTRA.SOLV>
0.0662343

>  <SCORE.INTRA.SOLV.lig_0>
-5.95779

>  <SCORE.INTRA.VDW>
-0.0909476

>  <SCORE.INTRA.VDW.0>
3.81702

>  <SCORE.INTRA.norm>
0.0694806

>  <SCORE.RESTR>
0

>  <SCORE.RESTR.CAVITY>
0

>  <SCORE.RESTR.norm>
0

>  <SCORE.SYSTEM>
0

>  <SCORE.SYSTEM.CONST>
0

>  <SCORE.SYSTEM.DIHEDRAL>
0

>  <SCORE.SYSTEM.SOLV>
0

>  <SCORE.SYSTEM.norm>
0

>  <SCORE.heavy>
25

>  <SCORE.norm>
-1.94295

>  <RMSD>
1.981

$$$$
1q8n_lig
 OpenBabel11021811413D
libRbt.so/2013.1/901 2013/11/27
 25 27  0  0  0  0  0  0  0  0999 V2000
    0.9614    0.5844   -0.7599 C   0  0  0  0  0  0  0  0  0  0  0  0
    0.9328    2.0071   -1.5603 C   0  0  0  0  0  0  0  0  0  0  0  0
   -0.8002    0.5264    4.9247 N   0  0  0  0  0  0  0  0  0  0  0  0
    0.7090    3.1994   -0.9576 C   0  0  0  0  0  0  0  0  0  0  0  0
    2.6754   -4.6078   -3.2128 N   0  0  0  0  0  0  0  0  0  0  0  0
    0.6854    4.4678   -1.7220 C   0  0  0  0  0  0  0  0  0  0  0  0
    0.8929    4.4502   -3.0587 C   0  0  0  0  0  0  0  0  0  0  0  0
    1.1401    3.1903   -3.7202 C   0  0  0  0  0  0  0  0  0  0  0  0
    1.1570    2.0533   -3.0202 C   0  0  0  0  0  0  0  0  0  0  0  0
    0.4802    0.5633    0.7984 C   0  0  0  0  0  0  0  0  0  0  0  0
    0.8610   -0.4246    1.6346 C   0  0  0  0  0  0  0  0  0  0  0  0
    0.4312   -0.4600    3.0601 C   0  0  0  0  0  0  0  0  0  0  0  0
   -0.3662    0.5221    3.5590 C   0  0  0  0  0  0  0  0  0  0  0  0
   -0.7888    1.6102    2.6571 C   0  0  0  0  0  0  0  0  0  0  0  0
   -0.3944    1.6256    1.3762 C   0  0  0  0  0  0  0  0  0  0  0  0
    1.4640   -0.8170   -1.4895 C   0  0  0  0  0  0  0  0  0  0  0  0
    1.3496   -2.1245   -0.7553 C   0  0  0  0  0  0  0  0  0  0  0  0
    1.7269   -3.2892   -1.2894 C   0  0  0  0  0  0  0  0  0  0  0  0
    2.2839   -3.3513   -2.6458 C   0  0  0  0  0  0  0  0  0  0  0  0
    2.4139   -2.2054   -3.3461 C   0  0  0  0  0  0  0  0  0  0  0  0
    1.9917   -0.8904   -2.7566 C   0  0  0  0  0  0  0  0  0  0  0  0
   -1.1823    1.7285    5.6010 C   0  0  0  0  0  0  0  0  0  0  0  0
   -0.8649   -0.6971    5.6623 C   0  0  0  0  0  0  0  0  0  0  0  0
    2.0975   -5.8307   -2.7346 C   0  0  0  0  0  0  0  0  0  0  0  0
    3.6506   -4.6792   -4.2774 C   0  0  0  0  0  0  0  0  0  0  0  0
  1  2  1  0  0  0  0
  1 10  1  0  0  0  0
  1 16  1  0  0  0  0
  2  4  2  0  0  0  0
  2  9  1  0  0  0  0
  4  6  1  0  0  0  0
  6  7  2  0  0  0  0
  7  8  1  0  0  0  0
  8  9  2  0  0  0  0
 10 11  2  0  0  0  0
 10 15  1  0  0  0  0
 11 12  1  0  0  0  0
 12 13  2  0  0  0  0
 13  3  1  0  0  0  0
 13 14  1  0  0  0  0
 14 15  2  0  0  0  0
 16 17  2  0  0  0  0
 16 21  1  0  0  0  0
 17 18  1  0  0  0  0
 18 19  2  0  0  0  0
 19  5  1  0  0  0  0
 19 20  1  0  0  0  0
 20 21  2  0  0  0  0
 22  3  1  0  0  0  0
 23  3  1  0  0  0  0
 24  5  1  0  0  0  0
 25  5  1  0  0  0  0
M  END
>  <CHROM.1>
9.41518882,-158.61672463,-174.17462986,155.71071920,23.76693113,0.93964147
-0.17896964,-0.28132260,-3.11062262,-1.21927810,2.59127993

>  <Name>
1q8n_lig

>  <RI>
0

>  <Rbt.Current_Directory>
/home/itssahil/PROJECTS/Mol_Feturizer/New_Systems/rnas/1q8n

>  <Rbt.Executable>
rbdock ($Id: //depot/dev/client3/rdock/2013.1/src/exe/rbdock.cxx#4 $)

>  <Rbt.Library>
libRbt.so (2013.1, Build901 2013/11/27)

>  <Rbt.Parameter_File>
/export/apps/rDock/src/rDock_2013.1_src/data/scripts/dock_solv.prm

>  <Rbt.Receptor>
prm/pocket_docking_8.prm

>  <SCORE>
-48.6651

>  <SCORE.INTER>
-50.5231

>  <SCORE.INTER.CONST>
1

>  <SCORE.INTER.POLAR>
0

>  <SCORE.INTER.ROT>
5

>  <SCORE.INTER.SOLV>
9.57319

>  <SCORE.INTER.VDW>
-43.8065

>  <SCORE.INTER.norm>
-2.02093

>  <SCORE.INTRA>
1.85808

>  <SCORE.INTRA.DIHEDRAL>
4.24133

>  <SCORE.INTRA.DIHEDRAL.0>
2.1627

>  <SCORE.INTRA.POLAR>
0

>  <SCORE.INTRA.POLAR.0>
0

>  <SCORE.INTRA.REPUL>
0

>  <SCORE.INTRA.REPUL.0>
0

>  <SCORE.INTRA.SOLV>
0.0668499

>  <SCORE.INTRA.SOLV.lig_0>
-5.95779

>  <SCORE.INTRA.VDW>
-0.296012

>  <SCORE.INTRA.VDW.0>
3.81702

>  <SCORE.INTRA.norm>
0.0743231

>  <SCORE.RESTR>
0

>  <SCORE.RESTR.CAVITY>
0

>  <SCORE.RESTR.norm>
0

>  <SCORE.SYSTEM>
0

>  <SCORE.SYSTEM.CONST>
0

>  <SCORE.SYSTEM.DIHEDRAL>
0

>  <SCORE.SYSTEM.SOLV>
0

>  <SCORE.SYSTEM.norm>
0

>  <SCORE.heavy>
25

>  <SCORE.norm>
-1.9466

>  <RMSD>
1.981

$$$$
1q8n_lig
 OpenBabel11021811413D
libRbt.so/2013.1/901 2013/11/27
 25 27  0  0  0  0  0  0  0  0999 V2000
    0.9700    0.5984   -0.7143 C   0  0  0  0  0  0  0  0  0  0  0  0
    0.9398    2.0144   -1.5264 C   0  0  0  0  0  0  0  0  0  0  0  0
   -0.7382    0.5963    4.9870 N   0  0  0  0  0  0  0  0  0  0  0  0
    0.6914    3.2087   -0.9375 C   0  0  0  0  0  0  0  0  0  0  0  0
    2.6300   -4.6221   -3.1439 N   0  0  0  0  0  0  0  0  0  0  0  0
    0.6674    4.4708   -1.7125 C   0  0  0  0  0  0  0  0  0  0  0  0
    0.8996    4.4450   -3.0449 C   0  0  0  0  0  0  0  0  0  0  0  0
    1.1731    3.1829   -3.6917 C   0  0  0  0  0  0  0  0  0  0  0  0
    1.1902    2.0517   -2.9824 C   0  0  0  0  0  0  0  0  0  0  0  0
    0.5034    0.5927    0.8486 C   0  0  0  0  0  0  0  0  0  0  0  0
    0.9006   -0.3814    1.6934 C   0  0  0  0  0  0  0  0  0  0  0  0
    0.4845   -0.4027    3.1232 C   0  0  0  0  0  0  0  0  0  0  0  0
   -0.3168    0.5786    3.6173 C   0  0  0  0  0  0  0  0  0  0  0  0
   -0.7574    1.6517    2.7060 C   0  0  0  0  0  0  0  0  0  0  0  0
   -0.3750    1.6545    1.4214 C   0  0  0  0  0  0  0  0  0  0  0  0
    1.4596   -0.8113   -1.4366 C   0  0  0  0  0  0  0  0  0  0  0  0
    1.2984   -2.1183   -0.7104 C   0  0  0  0  0  0  0  0  0  0  0  0
    1.6632   -3.2894   -1.2396 C   0  0  0  0  0  0  0  0  0  0  0  0
    2.2522   -3.3593   -2.5819 C   0  0  0  0  0  0  0  0  0  0  0  0
    2.4246   -2.2142   -3.2744 C   0  0  0  0  0  0  0  0  0  0  0  0
    2.0169   -0.8922   -2.6905 C   0  0  0  0  0  0  0  0  0  0  0  0
   -0.6522   -0.5590    5.8275 C   0  0  0  0  0  0  0  0  0  0  0  0
   -1.2656    1.7950    5.5615 C   0  0  0  0  0  0  0  0  0  0  0  0
    2.0441   -5.8374   -2.6559 C   0  0  0  0  0  0  0  0  0  0  0  0
    3.5991   -4.7078   -4.2131 C   0  0  0  0  0  0  0  0  0  0  0  0
  1  2  1  0  0  0  0
  1 10  1  0  0  0  0
  1 16  1  0  0  0  0
  2  4  2  0  0  0  0
  2  9  1  0  0  0  0
  4  6  1  0  0  0  0
  6  7  2  0  0  0  0
  7  8  1  0  0  0  0
  8  9  2  0  0  0  0
 10 11  2  0  0  0  0
 10 15  1  0  0  0  0
 11 12  1  0  0  0  0
 12 13  2  0  0  0  0
 13  3  1  0  0  0  0
 13 14  1  0  0  0  0
 14 15  2  0  0  0  0
 16 17  2  0  0  0  0
 16 21  1  0  0  0  0
 17 18  1  0  0  0  0
 18 19  2  0  0  0  0
 19  5  1  0  0  0  0
 19 20  1  0  0  0  0
 20 21  2  0  0  0  0
 22  3  1  0  0  0  0
 23  3  1  0  0  0  0
 24  5  1  0  0  0  0
 25  5  1  0  0  0  0
M  END
>  <CHROM.1>
7.58821145,-157.83792197,-171.86060599,-16.75998083,21.81928071,0.94739739
-0.15858079,-0.23033258,-3.11559859,-1.22859649,2.57746003

>  <Name>
1q8n_lig

>  <RI>
0

>  <Rbt.Current_Directory>
/home/itssahil/PROJECTS/Mol_Feturizer/New_Systems/rnas/1q8n

>  <Rbt.Executable>
rbdock ($Id: //depot/dev/client3/rdock/2013.1/src/exe/rbdock.cxx#4 $)

>  <Rbt.Library>
libRbt.so (2013.1, Build901 2013/11/27)

>  <Rbt.Parameter_File>
/export/apps/rDock/src/rDock_2013.1_src/data/scripts/dock_solv.prm

>  <Rbt.Receptor>
prm/pocket_docking_6.prm

>  <SCORE>
-48.5216

>  <SCORE.INTER>
-50.0856

>  <SCORE.INTER.CONST>
1

>  <SCORE.INTER.POLAR>
0

>  <SCORE.INTER.ROT>
5

>  <SCORE.INTER.SOLV>
9.55394

>  <SCORE.INTER.VDW>
-43.5084

>  <SCORE.INTER.norm>
-2.00342

>  <SCORE.INTRA>
1.56397

>  <SCORE.INTRA.DIHEDRAL>
2.82962

>  <SCORE.INTRA.DIHEDRAL.0>
2.1627

>  <SCORE.INTRA.POLAR>
0

>  <SCORE.INTRA.POLAR.0>
0

>  <SCORE.INTRA.REPUL>
0

>  <SCORE.INTRA.REPUL.0>
0

>  <SCORE.INTRA.SOLV>
0.0663793

>  <SCORE.INTRA.SOLV.lig_0>
-5.95779

>  <SCORE.INTRA.VDW>
0.115974

>  <SCORE.INTRA.VDW.0>
3.81702

>  <SCORE.INTRA.norm>
0.0625589

>  <SCORE.RESTR>
0

>  <SCORE.RESTR.CAVITY>
0

>  <SCORE.RESTR.norm>
0

>  <SCORE.SYSTEM>
0

>  <SCORE.SYSTEM.CONST>
0

>  <SCORE.SYSTEM.DIHEDRAL>
0

>  <SCORE.SYSTEM.SOLV>
0

>  <SCORE.SYSTEM.norm>
0

>  <SCORE.heavy>
25

>  <SCORE.norm>
-1.94086

>  <RMSD>
1.982

$$$$
1q8n_lig
 OpenBabel11021811403D
libRbt.so/2013.1/901 2013/11/27
 25 27  0  0  0  0  0  0  0  0999 V2000
    0.8761    0.5065   -0.5703 C   0  0  0  0  0  0  0  0  0  0  0  0
    0.8611    1.8691   -1.4695 C   0  0  0  0  0  0  0  0  0  0  0  0
    2.6860   -4.5406   -3.1536 N   0  0  0  0  0  0  0  0  0  0  0  0
    0.6820    3.1066   -0.9484 C   0  0  0  0  0  0  0  0  0  0  0  0
   -0.9678    0.7007    5.1284 N   0  0  0  0  0  0  0  0  0  0  0  0
    0.6693    4.3178   -1.8009 C   0  0  0  0  0  0  0  0  0  0  0  0
    0.8414    4.2000   -3.1375 C   0  0  0  0  0  0  0  0  0  0  0  0
    1.0407    2.8904   -3.7129 C   0  0  0  0  0  0  0  0  0  0  0  0
    1.0483    1.8058   -2.9341 C   0  0  0  0  0  0  0  0  0  0  0  0
    1.3717   -0.8792   -1.2735 C   0  0  0  0  0  0  0  0  0  0  0  0
    1.2236   -2.0691   -0.6551 C   0  0  0  0  0  0  0  0  0  0  0  0
    1.6702   -3.3441   -1.2820 C   0  0  0  0  0  0  0  0  0  0  0  0
    2.2445   -3.3362   -2.5146 C   0  0  0  0  0  0  0  0  0  0  0  0
    2.4112   -2.0428   -3.2040 C   0  0  0  0  0  0  0  0  0  0  0  0
    2.0052   -0.9043   -2.6245 C   0  0  0  0  0  0  0  0  0  0  0  0
    0.4032    0.5046    1.0187 C   0  0  0  0  0  0  0  0  0  0  0  0
   -0.3510    1.6806    1.5755 C   0  0  0  0  0  0  0  0  0  0  0  0
   -0.7686    1.7375    2.8430 C   0  0  0  0  0  0  0  0  0  0  0  0
   -0.5057    0.6335    3.7736 C   0  0  0  0  0  0  0  0  0  0  0  0
    0.1729   -0.4434    3.3263 C   0  0  0  0  0  0  0  0  0  0  0  0
    0.6459   -0.5192    1.9032 C   0  0  0  0  0  0  0  0  0  0  0  0
    2.1219   -5.8195   -2.8458 C   0  0  0  0  0  0  0  0  0  0  0  0
    3.7230   -4.4940   -4.1372 C   0  0  0  0  0  0  0  0  0  0  0  0
   -1.3703    1.9553    5.6960 C   0  0  0  0  0  0  0  0  0  0  0  0
   -1.0472   -0.4835    5.9535 C   0  0  0  0  0  0  0  0  0  0  0  0
  1  2  1  0  0  0  0
  1 10  1  0  0  0  0
  1 16  1  0  0  0  0
  2  4  2  0  0  0  0
  2  9  1  0  0  0  0
  4  6  1  0  0  0  0
  6  7  2  0  0  0  0
  7  8  1  0  0  0  0
  8  9  2  0  0  0  0
 10 11  2  0  0  0  0
 10 15  1  0  0  0  0
 11 12  1  0  0  0  0
 12 13  2  0  0  0  0
 13  3  1  0  0  0  0
 13 14  1  0  0  0  0
 14 15  2  0  0  0  0
 16 17  2  0  0  0  0
 16 21  1  0  0  0  0
 17 18  1  0  0  0  0
 18 19  2  0  0  0  0
 19  5  1  0  0  0  0
 19 20  1  0  0  0  0
 20 21  2  0  0  0  0
 22  3  1  0  0  0  0
 23  3  1  0  0  0  0
 24  5  1  0  0  0  0
 25  5  1  0  0  0  0
M  END
>  <CHROM.1>
-168.87507457,-170.10681498,14.35338990,25.21558357,-16.53454990,0.86707512
-0.17862821,-0.16298945,3.11151527,-1.21172677,2.56842426

>  <Name>
1q8n_lig

>  <RI>
0

>  <Rbt.Current_Directory>
/home/itssahil/PROJECTS/Mol_Feturizer/New_Systems/rnas/1q8n

>  <Rbt.Executable>
rbdock ($Id: //depot/dev/client3/rdock/2013.1/src/exe/rbdock.cxx#4 $)

>  <Rbt.Library>
libRbt.so (2013.1, Build901 2013/11/27)

>  <Rbt.Parameter_File>
/export/apps/rDock/src/rDock_2013.1_src/data/scripts/dock_solv.prm

>  <Rbt.Receptor>
prm/blind_docking_20.prm

>  <SCORE>
-47.7653

>  <SCORE.INTER>
-49.7228

>  <SCORE.INTER.CONST>
1

>  <SCORE.INTER.POLAR>
0

>  <SCORE.INTER.ROT>
5

>  <SCORE.INTER.SOLV>
9.12965

>  <SCORE.INTER.VDW>
-43.1251

>  <SCORE.INTER.norm>
-1.98891

>  <SCORE.INTRA>
1.95751

>  <SCORE.INTRA.DIHEDRAL>
3.35857

>  <SCORE.INTRA.DIHEDRAL.0>
2.1627

>  <SCORE.INTRA.POLAR>
0

>  <SCORE.INTRA.POLAR.0>
0

>  <SCORE.INTRA.REPUL>
0

>  <SCORE.INTRA.REPUL.0>
0

>  <SCORE.INTRA.SOLV>
0.0704265

>  <SCORE.INTRA.SOLV.lig_0>
-5.95779

>  <SCORE.INTRA.VDW>
0.243009

>  <SCORE.INTRA.VDW.0>
3.81702

>  <SCORE.INTRA.norm>
0.0783003

>  <SCORE.RESTR>
0

>  <SCORE.RESTR.CAVITY>
0

>  <SCORE.RESTR.norm>
0

>  <SCORE.SYSTEM>
0

>  <SCORE.SYSTEM.CONST>
0

>  <SCORE.SYSTEM.DIHEDRAL>
0

>  <SCORE.SYSTEM.SOLV>
0

>  <SCORE.SYSTEM.norm>
0

>  <SCORE.heavy>
25

>  <SCORE.norm>
-1.91061

>  <RMSD>
2.001

$$$$
1q8n_lig
 OpenBabel11021811403D
libRbt.so/2013.1/901 2013/11/27
 25 27  0  0  0  0  0  0  0  0999 V2000
    0.9725    0.5944   -0.7611 C   0  0  0  0  0  0  0  0  0  0  0  0
    0.9525    2.0180   -1.5602 C   0  0  0  0  0  0  0  0  0  0  0  0
   -0.8235    0.4956    4.9122 N   0  0  0  0  0  0  0  0  0  0  0  0
    0.6955    3.2066   -0.9635 C   0  0  0  0  0  0  0  0  0  0  0  0
    2.6917   -4.5984   -3.2089 N   0  0  0  0  0  0  0  0  0  0  0  0
    0.6812    4.4759   -1.7267 C   0  0  0  0  0  0  0  0  0  0  0  0
    0.9313    4.4628   -3.0561 C   0  0  0  0  0  0  0  0  0  0  0  0
    1.2144    3.2071   -3.7110 C   0  0  0  0  0  0  0  0  0  0  0  0
    1.2225    2.0692   -3.0123 C   0  0  0  0  0  0  0  0  0  0  0  0
    0.4792    0.5726    0.7933 C   0  0  0  0  0  0  0  0  0  0  0  0
   -0.2462    1.5856    1.3112 C   0  0  0  0  0  0  0  0  0  0  0  0
   -0.7050    1.5825    2.7280 C   0  0  0  0  0  0  0  0  0  0  0  0
   -0.3996    0.5384    3.5439 C   0  0  0  0  0  0  0  0  0  0  0  0
    0.3910   -0.5776    2.9912 C   0  0  0  0  0  0  0  0  0  0  0  0
    0.7976   -0.5579    1.7141 C   0  0  0  0  0  0  0  0  0  0  0  0
    1.4783   -0.8071   -1.4882 C   0  0  0  0  0  0  0  0  0  0  0  0
    1.3278   -2.1189   -0.7685 C   0  0  0  0  0  0  0  0  0  0  0  0
    1.7059   -3.2839   -1.3017 C   0  0  0  0  0  0  0  0  0  0  0  0
    2.2997   -3.3419   -2.6425 C   0  0  0  0  0  0  0  0  0  0  0  0
    2.4629   -2.1920   -3.3293 C   0  0  0  0  0  0  0  0  0  0  0  0
    2.0402   -0.8767   -2.7407 C   0  0  0  0  0  0  0  0  0  0  0  0
   -1.1864    1.6754    5.6367 C   0  0  0  0  0  0  0  0  0  0  0  0
   -0.8973   -0.7543    5.6032 C   0  0  0  0  0  0  0  0  0  0  0  0
    3.7124   -4.6531   -4.2157 C   0  0  0  0  0  0  0  0  0  0  0  0
    2.0804   -5.8369   -2.7825 C   0  0  0  0  0  0  0  0  0  0  0  0
  1  2  1  0  0  0  0
  1 10  1  0  0  0  0
  1 16  1  0  0  0  0
  2  4  2  0  0  0  0
  2  9  1  0  0  0  0
  4  6  1  0  0  0  0
  6  7  2  0  0  0  0
  7  8  1  0  0  0  0
  8  9  2  0  0  0  0
 10 11  2  0  0  0  0
 10 15  1  0  0  0  0
 11 12  1  0  0  0  0
 12 13  2  0  0  0  0
 13  3  1  0  0  0  0
 13 14  1  0  0  0  0
 14 15  2  0  0  0  0
 16 17  2  0  0  0  0
 16 21  1  0  0  0  0
 17 18  1  0  0  0  0
 18 19  2  0  0  0  0
 19  5  1  0  0  0  0
 19 20  1  0  0  0  0
 20 21  2  0  0  0  0
 22  3  1  0  0  0  0
 23  3  1  0  0  0  0
 24  5  1  0  0  0  0
 25  5  1  0  0  0  0
M  END
>  <CHROM.1>
7.83227456,17.15139935,-172.81303100,-21.25162537,-155.03349501,0.95425014
-0.19022729,-0.28145194,-3.09438792,-1.21502193,2.61562376

>  <Name>
1q8n_lig

>  <RI>
0

>  <Rbt.Current_Directory>
/home/itssahil/PROJECTS/Mol_Feturizer/New_Systems/rnas/1q8n

>  <Rbt.Executable>
rbdock ($Id: //depot/dev/client3/rdock/2013.1/src/exe/rbdock.cxx#4 $)

>  <Rbt.Library>
libRbt.so (2013.1, Build901 2013/11/27)

>  <Rbt.Parameter_File>
/export/apps/rDock/src/rDock_2013.1_src/data/scripts/dock_solv.prm

>  <Rbt.Receptor>
prm/blind_docking_20.prm

>  <SCORE>
-48.2045

>  <SCORE.INTER>
-50.2559

>  <SCORE.INTER.CONST>
1

>  <SCORE.INTER.POLAR>
0

>  <SCORE.INTER.ROT>
5

>  <SCORE.INTER.SOLV>
9.56612

>  <SCORE.INTER.VDW>
-43.626

>  <SCORE.INTER.norm>
-2.01024

>  <SCORE.INTRA>
2.05139

>  <SCORE.INTRA.DIHEDRAL>
3.95714

>  <SCORE.INTRA.DIHEDRAL.0>
2.1627

>  <SCORE.INTRA.POLAR>
0

>  <SCORE.INTRA.POLAR.0>
0

>  <SCORE.INTRA.REPUL>
0

>  <SCORE.INTRA.REPUL.0>
0

>  <SCORE.INTRA.SOLV>
0.0703483

>  <SCORE.INTRA.SOLV.lig_0>
-5.95779

>  <SCORE.INTRA.VDW>
0.0376494

>  <SCORE.INTRA.VDW.0>
3.81702

>  <SCORE.INTRA.norm>
0.0820557

>  <SCORE.RESTR>
0

>  <SCORE.RESTR.CAVITY>
0

>  <SCORE.RESTR.norm>
0

>  <SCORE.SYSTEM>
0

>  <SCORE.SYSTEM.CONST>
0

>  <SCORE.SYSTEM.DIHEDRAL>
0

>  <SCORE.SYSTEM.SOLV>
0

>  <SCORE.SYSTEM.norm>
0

>  <SCORE.heavy>
25

>  <SCORE.norm>
-1.92818

>  <RMSD>
2.003

$$$$
1q8n_lig
 OpenBabel11021811403D
libRbt.so/2013.1/901 2013/11/27
 25 27  0  0  0  0  0  0  0  0999 V2000
    0.8495    0.6112   -0.6020 C   0  0  0  0  0  0  0  0  0  0  0  0
    0.8372    1.9493   -1.5373 C   0  0  0  0  0  0  0  0  0  0  0  0
    2.6411   -4.5085   -3.0515 N   0  0  0  0  0  0  0  0  0  0  0  0
    0.7581    3.2073   -1.0412 C   0  0  0  0  0  0  0  0  0  0  0  0
   -0.6926    0.5816    5.1889 N   0  0  0  0  0  0  0  0  0  0  0  0
    0.7439    4.3953   -1.9257 C   0  0  0  0  0  0  0  0  0  0  0  0
    0.8127    4.2346   -3.2671 C   0  0  0  0  0  0  0  0  0  0  0  0
    0.9043    2.9021   -3.8168 C   0  0  0  0  0  0  0  0  0  0  0  0
    0.9144    1.8389   -3.0090 C   0  0  0  0  0  0  0  0  0  0  0  0
    1.3400   -0.7943   -1.2685 C   0  0  0  0  0  0  0  0  0  0  0  0
    1.1709   -1.9691   -0.6269 C   0  0  0  0  0  0  0  0  0  0  0  0
    1.6125   -3.2617   -1.2202 C   0  0  0  0  0  0  0  0  0  0  0  0
    2.2037   -3.2862   -2.4446 C   0  0  0  0  0  0  0  0  0  0  0  0
    2.3934   -2.0097   -3.1591 C   0  0  0  0  0  0  0  0  0  0  0  0
    1.9916   -0.8550   -2.6097 C   0  0  0  0  0  0  0  0  0  0  0  0
    0.3789    0.6533    0.9872 C   0  0  0  0  0  0  0  0  0  0  0  0
    0.8361   -0.4247    1.9309 C   0  0  0  0  0  0  0  0  0  0  0  0
    0.5008   -0.4439    3.2238 C   0  0  0  0  0  0  0  0  0  0  0  0
   -0.3481    0.6064    3.7982 C   0  0  0  0  0  0  0  0  0  0  0  0
   -0.7908    1.5944    2.9930 C   0  0  0  0  0  0  0  0  0  0  0  0
   -0.4192    1.6273    1.5384 C   0  0  0  0  0  0  0  0  0  0  0  0
    3.6229   -4.5358   -4.0926 C   0  0  0  0  0  0  0  0  0  0  0  0
    2.0966   -5.7593   -2.6224 C   0  0  0  0  0  0  0  0  0  0  0  0
   -0.4731   -0.6021    5.9693 C   0  0  0  0  0  0  0  0  0  0  0  0
   -1.2604    1.7394    5.8420 C   0  0  0  0  0  0  0  0  0  0  0  0
  1  2  1  0  0  0  0
  1 10  1  0  0  0  0
  1 16  1  0  0  0  0
  2  4  2  0  0  0  0
  2  9  1  0  0  0  0
  4  6  1  0  0  0  0
  6  7  2  0  0  0  0
  7  8  1  0  0  0  0
  8  9  2  0  0  0  0
 10 11  2  0  0  0  0
 10 15  1  0  0  0  0
 11 12  1  0  0  0  0
 12 13  2  0  0  0  0
 13  3  1  0  0  0  0
 13 14  1  0  0  0  0
 14 15  2  0  0  0  0
 16 17  2  0  0  0  0
 16 21  1  0  0  0  0
 17 18  1  0  0  0  0
 18 19  2  0  0  0  0
 19  5  1  0  0  0  0
 19 20  1  0  0  0  0
 20 21  2  0  0  0  0
 22  3  1  0  0  0  0
 23  3  1  0  0  0  0
 24  5  1  0  0  0  0
 25  5  1  0  0  0  0
M  END
>  <CHROM.1>
-163.99600208,-169.08989144,-158.75807836,-159.25865002,-13.93906063,0.90796630
-0.16379919,-0.15109657,2.99271841,-1.23317216,2.47587673

>  <Name>
1q8n_lig

>  <RI>
0

>  <Rbt.Current_Directory>
/home/itssahil/PROJECTS/Mol_Feturizer/New_Systems/rnas/1q8n

>  <Rbt.Executable>
rbdock ($Id: //depot/dev/client3/rdock/2013.1/src/exe/rbdock.cxx#4 $)

>  <Rbt.Library>
libRbt.so (2013.1, Build901 2013/11/27)

>  <Rbt.Parameter_File>
/export/apps/rDock/src/rDock_2013.1_src/data/scripts/dock_solv.prm

>  <Rbt.Receptor>
prm/pocket_docking_5.prm

>  <SCORE>
-47.0086

>  <SCORE.INTER>
-48.5476

>  <SCORE.INTER.CONST>
1

>  <SCORE.INTER.POLAR>
0

>  <SCORE.INTER.ROT>
5

>  <SCORE.INTER.SOLV>
9.04664

>  <SCORE.INTER.VDW>
-42.3139

>  <SCORE.INTER.norm>
-1.9419

>  <SCORE.INTRA>
1.53901

>  <SCORE.INTRA.DIHEDRAL>
2.34903

>  <SCORE.INTRA.DIHEDRAL.0>
2.1627

>  <SCORE.INTRA.POLAR>
0

>  <SCORE.INTRA.POLAR.0>
0

>  <SCORE.INTRA.REPUL>
0

>  <SCORE.INTRA.REPUL.0>
0

>  <SCORE.INTRA.SOLV>
0.0630062

>  <SCORE.INTRA.SOLV.lig_0>
-5.95779

>  <SCORE.INTRA.VDW>
0.332987

>  <SCORE.INTRA.VDW.0>
3.81702

>  <SCORE.INTRA.norm>
0.0615603

>  <SCORE.RESTR>
0

>  <SCORE.RESTR.CAVITY>
0

>  <SCORE.RESTR.norm>
0

>  <SCORE.SYSTEM>
0

>  <SCORE.SYSTEM.CONST>
0

>  <SCORE.SYSTEM.DIHEDRAL>
0

>  <SCORE.SYSTEM.SOLV>
0

>  <SCORE.SYSTEM.norm>
0

>  <SCORE.heavy>
25

>  <SCORE.norm>
-1.88034

>  <RMSD>
2.008

$$$$
1q8n_lig
 OpenBabel11021811413D
libRbt.so/2013.1/901 2013/11/27
 25 27  0  0  0  0  0  0  0  0999 V2000
    1.0218    0.4385   -0.9179 C   0  0  0  0  0  0  0  0  0  0  0  0
    0.9702    1.8586   -1.7217 C   0  0  0  0  0  0  0  0  0  0  0  0
   -0.7106    0.3717    4.7756 N   0  0  0  0  0  0  0  0  0  0  0  0
    1.1121    1.9630   -3.0648 C   0  0  0  0  0  0  0  0  0  0  0  0
    2.7902   -4.7365   -3.3686 N   0  0  0  0  0  0  0  0  0  0  0  0
    1.0646    3.2726   -3.7550 C   0  0  0  0  0  0  0  0  0  0  0  0
    0.8734    4.4033   -3.0373 C   0  0  0  0  0  0  0  0  0  0  0  0
    0.7131    4.3140   -1.6047 C   0  0  0  0  0  0  0  0  0  0  0  0
    0.7597    3.1275   -0.9938 C   0  0  0  0  0  0  0  0  0  0  0  0
    0.5481    0.4149    0.6426 C   0  0  0  0  0  0  0  0  0  0  0  0
    0.8408   -0.6283    1.4466 C   0  0  0  0  0  0  0  0  0  0  0  0
    0.4164   -0.6669    2.8736 C   0  0  0  0  0  0  0  0  0  0  0  0
   -0.2853    0.3686    3.4071 C   0  0  0  0  0  0  0  0  0  0  0  0
   -0.6108    1.5173    2.5407 C   0  0  0  0  0  0  0  0  0  0  0  0
   -0.2227    1.5349    1.2579 C   0  0  0  0  0  0  0  0  0  0  0  0
    1.5400   -0.9578   -1.6463 C   0  0  0  0  0  0  0  0  0  0  0  0
    1.4203   -2.2689   -0.9194 C   0  0  0  0  0  0  0  0  0  0  0  0
    1.8096   -3.4298   -1.4532 C   0  0  0  0  0  0  0  0  0  0  0  0
    2.3859   -3.4840   -2.8018 C   0  0  0  0  0  0  0  0  0  0  0  0
    2.5213   -2.3346   -3.4953 C   0  0  0  0  0  0  0  0  0  0  0  0
    2.0858   -1.0238   -2.9062 C   0  0  0  0  0  0  0  0  0  0  0  0
   -0.8095   -0.8296    5.5474 C   0  0  0  0  0  0  0  0  0  0  0  0
   -1.0534    1.6020    5.4191 C   0  0  0  0  0  0  0  0  0  0  0  0
    2.1111   -5.9481   -3.0090 C   0  0  0  0  0  0  0  0  0  0  0  0
    3.8799   -4.8148   -4.3150 C   0  0  0  0  0  0  0  0  0  0  0  0
  1  2  1  0  0  0  0
  1 10  1  0  0  0  0
  1 16  1  0  0  0  0
  2  4  2  0  0  0  0
  2  9  1  0  0  0  0
  4  6  1  0  0  0  0
  6  7  2  0  0  0  0
  7  8  1  0  0  0  0
  8  9  2  0  0  0  0
 10 11  2  0  0  0  0
 10 15  1  0  0  0  0
 11 12  1  0  0  0  0
 12 13  2  0  0  0  0
 13  3  1  0  0  0  0
 13 14  1  0  0  0  0
 14 15  2  0  0  0  0
 16 17  2  0  0  0  0
 16 21  1  0  0  0  0
 17 18  1  0  0  0  0
 18 19  2  0  0  0  0
 19  5  1  0  0  0  0
 19 20  1  0  0  0  0
 20 21  2  0  0  0  0
 22  3  1  0  0  0  0
 23  3  1  0  0  0  0
 24  5  1  0  0  0  0
 25  5  1  0  0  0  0
M  END
>  <CHROM.1>
-168.11658357,-164.92258360,-172.90426618,-19.95100062,30.50270232,1.00730156
-0.30236132,-0.40437194,-3.09252085,-1.21807465,2.58179413

>  <Name>
1q8n_lig

>  <RI>
0

>  <Rbt.Current_Directory>
/home/itssahil/PROJECTS/Mol_Feturizer/New_Systems/rnas/1q8n

>  <Rbt.Executable>
rbdock ($Id: //depot/dev/client3/rdock/2013.1/src/exe/rbdock.cxx#4 $)

>  <Rbt.Library>
libRbt.so (2013.1, Build901 2013/11/27)

>  <Rbt.Parameter_File>
/export/apps/rDock/src/rDock_2013.1_src/data/scripts/dock_solv.prm

>  <Rbt.Receptor>
prm/pocket_docking_7.prm

>  <SCORE>
-48.8221

>  <SCORE.INTER>
-51.0541

>  <SCORE.INTER.CONST>
1

>  <SCORE.INTER.POLAR>
0

>  <SCORE.INTER.ROT>
5

>  <SCORE.INTER.SOLV>
9.51277

>  <SCORE.INTER.VDW>
-44.1403

>  <SCORE.INTER.norm>
-2.04216

>  <SCORE.INTRA>
2.23201

>  <SCORE.INTRA.DIHEDRAL>
4.78433

>  <SCORE.INTRA.DIHEDRAL.0>
2.1627

>  <SCORE.INTRA.POLAR>
0

>  <SCORE.INTRA.POLAR.0>
0

>  <SCORE.INTRA.REPUL>
0

>  <SCORE.INTRA.REPUL.0>
0

>  <SCORE.INTRA.SOLV>
0.0701793

>  <SCORE.INTRA.SOLV.lig_0>
-5.95779

>  <SCORE.INTRA.VDW>
-0.195246

>  <SCORE.INTRA.VDW.0>
3.81702

>  <SCORE.INTRA.norm>
0.0892803

>  <SCORE.RESTR>
0

>  <SCORE.RESTR.CAVITY>
0

>  <SCORE.RESTR.norm>
0

>  <SCORE.SYSTEM>
0

>  <SCORE.SYSTEM.CONST>
0

>  <SCORE.SYSTEM.DIHEDRAL>
0

>  <SCORE.SYSTEM.SOLV>
0

>  <SCORE.SYSTEM.norm>
0

>  <SCORE.heavy>
25

>  <SCORE.norm>
-1.95288

>  <RMSD>
2.015

$$$$
1q8n_lig
 OpenBabel11021811413D
libRbt.so/2013.1/901 2013/11/27
 25 27  0  0  0  0  0  0  0  0999 V2000
    0.9908    0.4115   -0.7340 C   0  0  0  0  0  0  0  0  0  0  0  0
    0.9370    1.8453   -1.5130 C   0  0  0  0  0  0  0  0  0  0  0  0
   -0.6629    0.2189    4.9800 N   0  0  0  0  0  0  0  0  0  0  0  0
    0.7076    3.0262   -0.8902 C   0  0  0  0  0  0  0  0  0  0  0  0
    2.7034   -4.7304   -3.2915 N   0  0  0  0  0  0  0  0  0  0  0  0
    0.6610    4.3053   -1.6356 C   0  0  0  0  0  0  0  0  0  0  0  0
    0.8525    4.3093   -2.9748 C   0  0  0  0  0  0  0  0  0  0  0  0
    1.1053    3.0620   -3.6576 C   0  0  0  0  0  0  0  0  0  0  0  0
    1.1430    1.9152   -2.9747 C   0  0  0  0  0  0  0  0  0  0  0  0
    0.5362    0.3640    0.8317 C   0  0  0  0  0  0  0  0  0  0  0  0
   -0.2170    1.3447    1.3713 C   0  0  0  0  0  0  0  0  0  0  0  0
   -0.6412    1.3178    2.7986 C   0  0  0  0  0  0  0  0  0  0  0  0
   -0.2741    0.2840    3.6022 C   0  0  0  0  0  0  0  0  0  0  0  0
    0.5477   -0.7969    3.0257 C   0  0  0  0  0  0  0  0  0  0  0  0
    0.9223   -0.7560    1.7394 C   0  0  0  0  0  0  0  0  0  0  0  0
    1.4922   -0.9750   -1.4922 C   0  0  0  0  0  0  0  0  0  0  0  0
    1.3922   -2.2951   -0.7788 C   0  0  0  0  0  0  0  0  0  0  0  0
    1.7694   -3.4488   -1.3363 C   0  0  0  0  0  0  0  0  0  0  0  0
    2.3120   -3.4855   -2.6994 C   0  0  0  0  0  0  0  0  0  0  0  0
    2.4287   -2.3275   -3.3819 C   0  0  0  0  0  0  0  0  0  0  0  0
    2.0065   -1.0246   -2.7660 C   0  0  0  0  0  0  0  0  0  0  0  0
   -1.0842    1.3756    5.7102 C   0  0  0  0  0  0  0  0  0  0  0  0
   -0.6404   -1.0306    5.6752 C   0  0  0  0  0  0  0  0  0  0  0  0
    2.0810   -5.9561   -2.8811 C   0  0  0  0  0  0  0  0  0  0  0  0
    3.7232   -4.7868   -4.3145 C   0  0  0  0  0  0  0  0  0  0  0  0
  1  2  1  0  0  0  0
  1 10  1  0  0  0  0
  1 16  1  0  0  0  0
  2  4  2  0  0  0  0
  2  9  1  0  0  0  0
  4  6  1  0  0  0  0
  6  7  2  0  0  0  0
  7  8  1  0  0  0  0
  8  9  2  0  0  0  0
 10 11  2  0  0  0  0
 10 15  1  0  0  0  0
 11 12  1  0  0  0  0
 12 13  2  0  0  0  0
 13  3  1  0  0  0  0
 13 14  1  0  0  0  0
 14 15  2  0  0  0  0
 16 17  2  0  0  0  0
 16 21  1  0  0  0  0
 17 18  1  0  0  0  0
 18 19  2  0  0  0  0
 19  5  1  0  0  0  0
 19 20  1  0  0  0  0
 20 21  2  0  0  0  0
 22  3  1  0  0  0  0
 23  3  1  0  0  0  0
 24  5  1  0  0  0  0
 25  5  1  0  0  0  0
M  END
>  <CHROM.1>
9.09773210,18.99013015,-173.76023645,-19.84189957,27.36300777,0.99239891
-0.37951959,-0.26441109,3.11832383,-1.23058593,2.56202550

>  <Name>
1q8n_lig

>  <RI>
0

>  <Rbt.Current_Directory>
/home/itssahil/PROJECTS/Mol_Feturizer/New_Systems/rnas/1q8n

>  <Rbt.Executable>
rbdock ($Id: //depot/dev/client3/rdock/2013.1/src/exe/rbdock.cxx#4 $)

>  <Rbt.Library>
libRbt.so (2013.1, Build901 2013/11/27)

>  <Rbt.Parameter_File>
/export/apps/rDock/src/rDock_2013.1_src/data/scripts/dock_solv.prm

>  <Rbt.Receptor>
prm/pocket_docking_8.prm

>  <SCORE>
-47.8929

>  <SCORE.INTER>
-49.8493

>  <SCORE.INTER.CONST>
1

>  <SCORE.INTER.POLAR>
0

>  <SCORE.INTER.ROT>
5

>  <SCORE.INTER.SOLV>
9.26045

>  <SCORE.INTER.VDW>
-43.253

>  <SCORE.INTER.norm>
-1.99397

>  <SCORE.INTRA>
1.95637

>  <SCORE.INTRA.DIHEDRAL>
4.1736

>  <SCORE.INTRA.DIHEDRAL.0>
2.1627

>  <SCORE.INTRA.POLAR>
0

>  <SCORE.INTRA.POLAR.0>
0

>  <SCORE.INTRA.REPUL>
0

>  <SCORE.INTRA.REPUL.0>
0

>  <SCORE.INTRA.SOLV>
0.0689322

>  <SCORE.INTRA.SOLV.lig_0>
-5.95779

>  <SCORE.INTRA.VDW>
-0.164901

>  <SCORE.INTRA.VDW.0>
3.81702

>  <SCORE.INTRA.norm>
0.0782547

>  <SCORE.RESTR>
0

>  <SCORE.RESTR.CAVITY>
0

>  <SCORE.RESTR.norm>
0

>  <SCORE.SYSTEM>
0

>  <SCORE.SYSTEM.CONST>
0

>  <SCORE.SYSTEM.DIHEDRAL>
0

>  <SCORE.SYSTEM.SOLV>
0

>  <SCORE.SYSTEM.norm>
0

>  <SCORE.heavy>
25

>  <SCORE.norm>
-1.91572

>  <RMSD>
2.153

$$$$
1q8n_lig
 OpenBabel11021811413D
libRbt.so/2013.1/901 2013/11/27
 25 27  0  0  0  0  0  0  0  0999 V2000
    0.9497    0.3287   -0.5779 C   0  0  0  0  0  0  0  0  0  0  0  0
    0.9386    1.7085   -1.4504 C   0  0  0  0  0  0  0  0  0  0  0  0
   -0.3714    0.6226    5.2178 N   0  0  0  0  0  0  0  0  0  0  0  0
    1.1771    1.7521   -2.7831 C   0  0  0  0  0  0  0  0  0  0  0  0
    2.3640   -4.8407   -3.2594 N   0  0  0  0  0  0  0  0  0  0  0  0
    1.1633    3.0270   -3.5370 C   0  0  0  0  0  0  0  0  0  0  0  0
    0.9053    4.1867   -2.8902 C   0  0  0  0  0  0  0  0  0  0  0  0
    0.6416    4.1620   -1.4704 C   0  0  0  0  0  0  0  0  0  0  0  0
    0.6589    3.0064   -0.8015 C   0  0  0  0  0  0  0  0  0  0  0  0
    0.5855    0.4141    1.0097 C   0  0  0  0  0  0  0  0  0  0  0  0
   -0.2969    1.3215    1.4769 C   0  0  0  0  0  0  0  0  0  0  0  0
   -0.6414    1.4139    2.9228 C   0  0  0  0  0  0  0  0  0  0  0  0
   -0.0658    0.5682    3.8188 C   0  0  0  0  0  0  0  0  0  0  0  0
    0.8993   -0.4309    3.3224 C   0  0  0  0  0  0  0  0  0  0  0  0
    1.1994   -0.4991    2.0178 C   0  0  0  0  0  0  0  0  0  0  0  0
    1.3199   -1.1345   -1.2641 C   0  0  0  0  0  0  0  0  0  0  0  0
    1.6902   -1.2049   -2.7199 C   0  0  0  0  0  0  0  0  0  0  0  0
    2.0082   -2.3496   -3.3307 C   0  0  0  0  0  0  0  0  0  0  0  0
    2.0107   -3.6204   -2.5966 C   0  0  0  0  0  0  0  0  0  0  0  0
    1.6799   -3.6138   -1.2885 C   0  0  0  0  0  0  0  0  0  0  0  0
    1.3222   -2.3330   -0.5910 C   0  0  0  0  0  0  0  0  0  0  0  0
    0.4210   -0.0534    6.1995 C   0  0  0  0  0  0  0  0  0  0  0  0
   -1.4997    1.3707    5.6787 C   0  0  0  0  0  0  0  0  0  0  0  0
    3.1703   -4.8145   -4.4458 C   0  0  0  0  0  0  0  0  0  0  0  0
    1.9275   -6.1226   -2.7537 C   0  0  0  0  0  0  0  0  0  0  0  0
  1  2  1  0  0  0  0
  1 10  1  0  0  0  0
  1 16  1  0  0  0  0
  2  4  2  0  0  0  0
  2  9  1  0  0  0  0
  4  6  1  0  0  0  0
  6  7  2  0  0  0  0
  7  8  1  0  0  0  0
  8  9  2  0  0  0  0
 10 11  2  0  0  0  0
 10 15  1  0  0  0  0
 11 12  1  0  0  0  0
 12 13  2  0  0  0  0
 13  3  1  0  0  0  0
 13 14  1  0  0  0  0
 14 15  2  0  0  0  0
 16 17  2  0  0  0  0
 16 21  1  0  0  0  0
 17 18  1  0  0  0  0
 18 19  2  0  0  0  0
 19  5  1  0  0  0  0
 19 20  1  0  0  0  0
 20 21  2  0  0  0  0
 22  3  1  0  0  0  0
 23  3  1  0  0  0  0
 24  5  1  0  0  0  0
 25  5  1  0  0  0  0
M  END
>  <CHROM.1>
-177.53853815,32.66111913,1.52794715,-166.43116523,23.06790749,0.96754922
-0.34608575,-0.12548039,0.07634766,1.29781642,-0.66373916

>  <Name>
1q8n_lig

>  <RI>
0

>  <Rbt.Current_Directory>
/home/itssahil/PROJECTS/Mol_Feturizer/New_Systems/rnas/1q8n

>  <Rbt.Executable>
rbdock ($Id: //depot/dev/client3/rdock/2013.1/src/exe/rbdock.cxx#4 $)

>  <Rbt.Library>
libRbt.so (2013.1, Build901 2013/11/27)

>  <Rbt.Parameter_File>
/export/apps/rDock/src/rDock_2013.1_src/data/scripts/dock_solv.prm

>  <Rbt.Receptor>
prm/pocket_docking_6.prm

>  <SCORE>
-45.6887

>  <SCORE.INTER>
-47.0649

>  <SCORE.INTER.CONST>
1

>  <SCORE.INTER.POLAR>
0

>  <SCORE.INTER.ROT>
5

>  <SCORE.INTER.SOLV>
9.0966

>  <SCORE.INTER.VDW>
-41.3421

>  <SCORE.INTER.norm>
-1.88259

>  <SCORE.INTRA>
1.37621

>  <SCORE.INTRA.DIHEDRAL>
2.66501

>  <SCORE.INTRA.DIHEDRAL.0>
2.1627

>  <SCORE.INTRA.POLAR>
0

>  <SCORE.INTRA.POLAR.0>
0

>  <SCORE.INTRA.REPUL>
0

>  <SCORE.INTRA.REPUL.0>
0

>  <SCORE.INTRA.SOLV>
0.0605127

>  <SCORE.INTRA.SOLV.lig_0>
-5.95779

>  <SCORE.INTRA.VDW>
0.0134473

>  <SCORE.INTRA.VDW.0>
3.81702

>  <SCORE.INTRA.norm>
0.0550483

>  <SCORE.RESTR>
0

>  <SCORE.RESTR.CAVITY>
0

>  <SCORE.RESTR.norm>
0

>  <SCORE.SYSTEM>
0

>  <SCORE.SYSTEM.CONST>
0

>  <SCORE.SYSTEM.DIHEDRAL>
0

>  <SCORE.SYSTEM.SOLV>
0

>  <SCORE.SYSTEM.norm>
0

>  <SCORE.heavy>
25

>  <SCORE.norm>
-1.82755

>  <RMSD>
2.190

$$$$
1q8n_lig
 OpenBabel11021811403D
libRbt.so/2013.1/901 2013/11/27
 25 27  0  0  0  0  0  0  0  0999 V2000
    1.0357    0.3846   -0.6270 C   0  0  0  0  0  0  0  0  0  0  0  0
    0.9574    1.7895   -1.4551 C   0  0  0  0  0  0  0  0  0  0  0  0
    2.9770   -4.4771   -3.4584 N   0  0  0  0  0  0  0  0  0  0  0  0
    0.7096    2.9873   -0.8732 C   0  0  0  0  0  0  0  0  0  0  0  0
   -0.7106    0.2320    5.1036 N   0  0  0  0  0  0  0  0  0  0  0  0
    0.6411    4.2389   -1.6624 C   0  0  0  0  0  0  0  0  0  0  0  0
    0.8305    4.1996   -3.0012 C   0  0  0  0  0  0  0  0  0  0  0  0
    1.1027    2.9337   -3.6410 C   0  0  0  0  0  0  0  0  0  0  0  0
    1.1601    1.8119   -2.9188 C   0  0  0  0  0  0  0  0  0  0  0  0
    1.5697   -0.9446   -1.4069 C   0  0  0  0  0  0  0  0  0  0  0  0
    2.4706   -0.8539   -2.4071 C   0  0  0  0  0  0  0  0  0  0  0  0
    2.9693   -2.0566   -3.1302 C   0  0  0  0  0  0  0  0  0  0  0  0
    2.5212   -3.2945   -2.7895 C   0  0  0  0  0  0  0  0  0  0  0  0
    1.5375   -3.4096   -1.6962 C   0  0  0  0  0  0  0  0  0  0  0  0
    1.0979   -2.3165   -1.0571 C   0  0  0  0  0  0  0  0  0  0  0  0
    0.5884    0.2851    0.9663 C   0  0  0  0  0  0  0  0  0  0  0  0
   -0.1225    1.4398    1.6166 C   0  0  0  0  0  0  0  0  0  0  0  0
   -0.5180    1.4197    2.8924 C   0  0  0  0  0  0  0  0  0  0  0  0
   -0.2723    0.2467    3.7394 C   0  0  0  0  0  0  0  0  0  0  0  0
    0.3677   -0.8148    3.2065 C   0  0  0  0  0  0  0  0  0  0  0  0
    0.8156   -0.8043    1.7733 C   0  0  0  0  0  0  0  0  0  0  0  0
    4.1272   -4.4774   -4.3102 C   0  0  0  0  0  0  0  0  0  0  0  0
    2.2797   -5.7139   -3.2873 C   0  0  0  0  0  0  0  0  0  0  0  0
   -0.7863   -1.0043    5.8277 C   0  0  0  0  0  0  0  0  0  0  0  0
   -1.0801    1.4514    5.7861 C   0  0  0  0  0  0  0  0  0  0  0  0
  1  2  1  0  0  0  0
  1 10  1  0  0  0  0
  1 16  1  0  0  0  0
  2  4  2  0  0  0  0
  2  9  1  0  0  0  0
  4  6  1  0  0  0  0
  6  7  2  0  0  0  0
  7  8  1  0  0  0  0
  8  9  2  0  0  0  0
 10 11  2  0  0  0  0
 10 15  1  0  0  0  0
 11 12  1  0  0  0  0
 12 13  2  0  0  0  0
 13  3  1  0  0  0  0
 13 14  1  0  0  0  0
 14 15  2  0  0  0  0
 16 17  2  0  0  0  0
 16 21  1  0  0  0  0
 17 18  1  0  0  0  0
 18 19  2  0  0  0  0
 19  5  1  0  0  0  0
 19 20  1  0  0  0  0
 20 21  2  0  0  0  0
 22  3  1  0  0  0  0
 23  3  1  0  0  0  0
 24  5  1  0  0  0  0
 25  5  1  0  0  0  0
M  END
>  <CHROM.1>
-170.55155382,30.63407309,10.49076820,13.99143196,164.00032245,1.05298186
-0.33209948,-0.23595627,3.05257406,-1.20585204,2.55492017

>  <Name>
1q8n_lig

>  <RI>
0

>  <Rbt.Current_Directory>
/home/itssahil/PROJECTS/Mol_Feturizer/New_Systems/rnas/1q8n

>  <Rbt.Executable>
rbdock ($Id: //depot/dev/client3/rdock/2013.1/src/exe/rbdock.cxx#4 $)

>  <Rbt.Library>
libRbt.so (2013.1, Build901 2013/11/27)

>  <Rbt.Parameter_File>
/export/apps/rDock/src/rDock_2013.1_src/data/scripts/dock_solv.prm

>  <Rbt.Receptor>
prm/blind_docking_80.prm

>  <SCORE>
-45.1251

>  <SCORE.INTER>
-46.2199

>  <SCORE.INTER.CONST>
1

>  <SCORE.INTER.POLAR>
0

>  <SCORE.INTER.ROT>
5

>  <SCORE.INTER.SOLV>
9.26473

>  <SCORE.INTER.VDW>
-40.8348

>  <SCORE.INTER.norm>
-1.8488

>  <SCORE.INTRA>
1.09481

>  <SCORE.INTRA.DIHEDRAL>
1.71791

>  <SCORE.INTRA.DIHEDRAL.0>
2.1627

>  <SCORE.INTRA.POLAR>
0

>  <SCORE.INTRA.POLAR.0>
0

>  <SCORE.INTRA.REPUL>
0

>  <SCORE.INTRA.REPUL.0>
0

>  <SCORE.INTRA.SOLV>
0.0574258

>  <SCORE.INTRA.SOLV.lig_0>
-5.95779

>  <SCORE.INTRA.VDW>
0.207142

>  <SCORE.INTRA.VDW.0>
3.81702

>  <SCORE.INTRA.norm>
0.0437923

>  <SCORE.RESTR>
0

>  <SCORE.RESTR.CAVITY>
0

>  <SCORE.RESTR.norm>
0

>  <SCORE.SYSTEM>
0

>  <SCORE.SYSTEM.CONST>
0

>  <SCORE.SYSTEM.DIHEDRAL>
0

>  <SCORE.SYSTEM.SOLV>
0

>  <SCORE.SYSTEM.norm>
0

>  <SCORE.heavy>
25

>  <SCORE.norm>
-1.805

>  <RMSD>
2.206

$$$$
1q8n_lig
 OpenBabel11021811413D
libRbt.so/2013.1/901 2013/11/27
 25 27  0  0  0  0  0  0  0  0999 V2000
    0.8995    0.4286   -0.6025 C   0  0  0  0  0  0  0  0  0  0  0  0
    0.8703    1.8085   -1.4745 C   0  0  0  0  0  0  0  0  0  0  0  0
    2.7445   -4.5696   -3.2549 N   0  0  0  0  0  0  0  0  0  0  0  0
    0.7342    3.0384   -0.9232 C   0  0  0  0  0  0  0  0  0  0  0  0
   -0.6586    0.0915    5.1744 N   0  0  0  0  0  0  0  0  0  0  0  0
    0.7066    4.2660   -1.7515 C   0  0  0  0  0  0  0  0  0  0  0  0
    0.8211    4.1715   -3.0961 C   0  0  0  0  0  0  0  0  0  0  0  0
    0.9740    2.8703   -3.7039 C   0  0  0  0  0  0  0  0  0  0  0  0
    0.9954    1.7707   -2.9465 C   0  0  0  0  0  0  0  0  0  0  0  0
    1.4056   -0.9385   -1.3340 C   0  0  0  0  0  0  0  0  0  0  0  0
    2.0040   -0.9045   -2.5428 C   0  0  0  0  0  0  0  0  0  0  0  0
    2.4724   -2.1424   -3.2255 C   0  0  0  0  0  0  0  0  0  0  0  0
    2.3064   -3.3552   -2.6330 C   0  0  0  0  0  0  0  0  0  0  0  0
    1.6557   -3.4079   -1.3102 C   0  0  0  0  0  0  0  0  0  0  0  0
    1.2385   -2.2841   -0.7106 C   0  0  0  0  0  0  0  0  0  0  0  0
    0.4305    0.3911    0.9873 C   0  0  0  0  0  0  0  0  0  0  0  0
    0.7600   -0.8060    1.8358 C   0  0  0  0  0  0  0  0  0  0  0  0
    0.4197   -0.8947    3.1245 C   0  0  0  0  0  0  0  0  0  0  0  0
   -0.3081    0.1929    3.7886 C   0  0  0  0  0  0  0  0  0  0  0  0
   -0.6340    1.2877    3.0706 C   0  0  0  0  0  0  0  0  0  0  0  0
   -0.2554    1.3993    1.6217 C   0  0  0  0  0  0  0  0  0  0  0  0
    3.8003   -4.5954   -4.2209 C   0  0  0  0  0  0  0  0  0  0  0  0
    2.1252   -5.8139   -2.9179 C   0  0  0  0  0  0  0  0  0  0  0  0
   -1.1370    1.2409    5.8874 C   0  0  0  0  0  0  0  0  0  0  0  0
   -0.5473   -1.1614    5.8866 C   0  0  0  0  0  0  0  0  0  0  0  0
  1  2  1  0  0  0  0
  1 10  1  0  0  0  0
  1 16  1  0  0  0  0
  2  4  2  0  0  0  0
  2  9  1  0  0  0  0
  4  6  1  0  0  0  0
  6  7  2  0  0  0  0
  7  8  1  0  0  0  0
  8  9  2  0  0  0  0
 10 11  2  0  0  0  0
 10 15  1  0  0  0  0
 11 12  1  0  0  0  0
 12 13  2  0  0  0  0
 13  3  1  0  0  0  0
 13 14  1  0  0  0  0
 14 15  2  0  0  0  0
 16 17  2  0  0  0  0
 16 21  1  0  0  0  0
 17 18  1  0  0  0  0
 18 19  2  0  0  0  0
 19  5  1  0  0  0  0
 19 20  1  0  0  0  0
 20 21  2  0  0  0  0
 22  3  1  0  0  0  0
 23  3  1  0  0  0  0
 24  5  1  0  0  0  0
 25  5  1  0  0  0  0
M  END
>  <CHROM.1>
-166.18825025,11.45766188,-166.18540210,24.94354430,168.09960195,0.95628662
-0.38246751,-0.17160640,2.99587177,-1.22605494,2.52043979

>  <Name>
1q8n_lig

>  <RI>
0

>  <Rbt.Current_Directory>
/home/itssahil/PROJECTS/Mol_Feturizer/New_Systems/rnas/1q8n

>  <Rbt.Executable>
rbdock ($Id: //depot/dev/client3/rdock/2013.1/src/exe/rbdock.cxx#4 $)

>  <Rbt.Library>
libRbt.so (2013.1, Build901 2013/11/27)

>  <Rbt.Parameter_File>
/export/apps/rDock/src/rDock_2013.1_src/data/scripts/dock_solv.prm

>  <Rbt.Receptor>
prm/pocket_docking_8.prm

>  <SCORE>
-46.426

>  <SCORE.INTER>
-48.3718

>  <SCORE.INTER.CONST>
1

>  <SCORE.INTER.POLAR>
0

>  <SCORE.INTER.ROT>
5

>  <SCORE.INTER.SOLV>
8.79556

>  <SCORE.INTER.VDW>
-42.113

>  <SCORE.INTER.norm>
-1.93487

>  <SCORE.INTRA>
1.94575

>  <SCORE.INTRA.DIHEDRAL>
2.82024

>  <SCORE.INTRA.DIHEDRAL.0>
2.1627

>  <SCORE.INTRA.POLAR>
0

>  <SCORE.INTRA.POLAR.0>
0

>  <SCORE.INTRA.REPUL>
0

>  <SCORE.INTRA.REPUL.0>
0

>  <SCORE.INTRA.SOLV>
0.068598

>  <SCORE.INTRA.SOLV.lig_0>
-5.95779

>  <SCORE.INTRA.VDW>
0.501327

>  <SCORE.INTRA.VDW.0>
3.81702

>  <SCORE.INTRA.norm>
0.0778298

>  <SCORE.RESTR>
0

>  <SCORE.RESTR.CAVITY>
0

>  <SCORE.RESTR.norm>
0

>  <SCORE.SYSTEM>
0

>  <SCORE.SYSTEM.CONST>
0

>  <SCORE.SYSTEM.DIHEDRAL>
0

>  <SCORE.SYSTEM.SOLV>
0

>  <SCORE.SYSTEM.norm>
0

>  <SCORE.heavy>
25

>  <SCORE.norm>
-1.85704

>  <RMSD>
2.214

$$$$
1q8n_lig
 OpenBabel11021811403D
libRbt.so/2013.1/901 2013/11/27
 25 27  0  0  0  0  0  0  0  0999 V2000
    0.8990    0.3872   -0.5253 C   0  0  0  0  0  0  0  0  0  0  0  0
    0.8924    1.7749   -1.3853 C   0  0  0  0  0  0  0  0  0  0  0  0
    2.7165   -4.5880   -3.2392 N   0  0  0  0  0  0  0  0  0  0  0  0
    0.7448    3.0000   -0.8264 C   0  0  0  0  0  0  0  0  0  0  0  0
   -0.7008    0.0277    5.2388 N   0  0  0  0  0  0  0  0  0  0  0  0
    0.7386    4.2350   -1.6440 C   0  0  0  0  0  0  0  0  0  0  0  0
    0.8849    4.1523   -2.9863 C   0  0  0  0  0  0  0  0  0  0  0  0
    1.0505    2.8564   -3.6020 C   0  0  0  0  0  0  0  0  0  0  0  0
    1.0525    1.7500   -2.8542 C   0  0  0  0  0  0  0  0  0  0  0  0
    1.3972   -0.9788   -1.2642 C   0  0  0  0  0  0  0  0  0  0  0  0
    1.3560   -2.1704   -0.6329 C   0  0  0  0  0  0  0  0  0  0  0  0
    1.8067   -3.4276   -1.2919 C   0  0  0  0  0  0  0  0  0  0  0  0
    2.2752   -3.4011   -2.5683 C   0  0  0  0  0  0  0  0  0  0  0  0
    2.3241   -2.1057   -3.2722 C   0  0  0  0  0  0  0  0  0  0  0  0
    1.9162   -0.9834   -2.6635 C   0  0  0  0  0  0  0  0  0  0  0  0
    0.4150    0.3409    1.0598 C   0  0  0  0  0  0  0  0  0  0  0  0
    0.8102   -0.8215    1.9283 C   0  0  0  0  0  0  0  0  0  0  0  0
    0.4615   -0.9147    3.2144 C   0  0  0  0  0  0  0  0  0  0  0  0
   -0.3416    0.1329    3.8556 C   0  0  0  0  0  0  0  0  0  0  0  0
   -0.7281    1.1952    3.1190 C   0  0  0  0  0  0  0  0  0  0  0  0
   -0.3408    1.3116    1.6728 C   0  0  0  0  0  0  0  0  0  0  0  0
    2.1939   -5.8827   -2.9241 C   0  0  0  0  0  0  0  0  0  0  0  0
    3.7111   -4.5072   -4.2636 C   0  0  0  0  0  0  0  0  0  0  0  0
   -0.3263    1.0568    6.1657 C   0  0  0  0  0  0  0  0  0  0  0  0
   -1.4494   -1.1048    5.7355 C   0  0  0  0  0  0  0  0  0  0  0  0
  1  2  1  0  0  0  0
  1 10  1  0  0  0  0
  1 16  1  0  0  0  0
  2  4  2  0  0  0  0
  2  9  1  0  0  0  0
  4  6  1  0  0  0  0
  6  7  2  0  0  0  0
  7  8  1  0  0  0  0
  8  9  2  0  0  0  0
 10 11  2  0  0  0  0
 10 15  1  0  0  0  0
 11 12  1  0  0  0  0
 12 13  2  0  0  0  0
 13  3  1  0  0  0  0
 13 14  1  0  0  0  0
 14 15  2  0  0  0  0
 16 17  2  0  0  0  0
 16 21  1  0  0  0  0
 17 18  1  0  0  0  0
 18 19  2  0  0  0  0
 19  5  1  0  0  0  0
 19 20  1  0  0  0  0
 20 21  2  0  0  0  0
 22  3  1  0  0  0  0
 23  3  1  0  0  0  0
 24  5  1  0  0  0  0
 25  5  1  0  0  0  0
M  END
>  <CHROM.1>
-167.18270884,-176.26481521,-161.73736491,28.15933785,122.10879429,0.95305701
-0.41216538,-0.12009835,0.11292868,1.22972402,-0.56738180

>  <Name>
1q8n_lig

>  <RI>
0

>  <Rbt.Current_Directory>
/home/itssahil/PROJECTS/Mol_Feturizer/New_Systems/rnas/1q8n

>  <Rbt.Executable>
rbdock ($Id: //depot/dev/client3/rdock/2013.1/src/exe/rbdock.cxx#4 $)

>  <Rbt.Library>
libRbt.so (2013.1, Build901 2013/11/27)

>  <Rbt.Parameter_File>
/export/apps/rDock/src/rDock_2013.1_src/data/scripts/dock_solv.prm

>  <Rbt.Receptor>
prm/blind_docking_80.prm

>  <SCORE>
-44.1153

>  <SCORE.INTER>
-48.2399

>  <SCORE.INTER.CONST>
1

>  <SCORE.INTER.POLAR>
0

>  <SCORE.INTER.ROT>
5

>  <SCORE.INTER.SOLV>
9.02383

>  <SCORE.INTER.VDW>
-42.1012

>  <SCORE.INTER.norm>
-1.9296

>  <SCORE.INTRA>
4.12454

>  <SCORE.INTRA.DIHEDRAL>
12.0357

>  <SCORE.INTRA.DIHEDRAL.0>
2.1627

>  <SCORE.INTRA.POLAR>
0

>  <SCORE.INTRA.POLAR.0>
0

>  <SCORE.INTRA.REPUL>
0

>  <SCORE.INTRA.REPUL.0>
0

>  <SCORE.INTRA.SOLV>
0.068465

>  <SCORE.INTRA.SOLV.lig_0>
-5.95779

>  <SCORE.INTRA.VDW>
-1.92753

>  <SCORE.INTRA.VDW.0>
3.81702

>  <SCORE.INTRA.norm>
0.164982

>  <SCORE.RESTR>
0

>  <SCORE.RESTR.CAVITY>
0

>  <SCORE.RESTR.norm>
0

>  <SCORE.SYSTEM>
0

>  <SCORE.SYSTEM.CONST>
0

>  <SCORE.SYSTEM.DIHEDRAL>
0

>  <SCORE.SYSTEM.SOLV>
0

>  <SCORE.SYSTEM.norm>
0

>  <SCORE.heavy>
25

>  <SCORE.norm>
-1.76461

>  <RMSD>
2.310

$$$$
1q8n_lig
 OpenBabel11021811403D
libRbt.so/2013.1/901 2013/11/27
 25 27  0  0  0  0  0  0  0  0999 V2000
    0.9761    0.2730   -0.6427 C   0  0  0  0  0  0  0  0  0  0  0  0
    0.9338    1.6511   -1.5171 C   0  0  0  0  0  0  0  0  0  0  0  0
    2.7569   -4.7172   -3.3536 N   0  0  0  0  0  0  0  0  0  0  0  0
    1.1306    1.6927   -2.8567 C   0  0  0  0  0  0  0  0  0  0  0  0
   -0.4576   -0.0373    5.1677 N   0  0  0  0  0  0  0  0  0  0  0  0
    1.0895    2.9660   -3.6122 C   0  0  0  0  0  0  0  0  0  0  0  0
    0.8485    4.1263   -2.9598 C   0  0  0  0  0  0  0  0  0  0  0  0
    0.6292    4.1037   -1.5325 C   0  0  0  0  0  0  0  0  0  0  0  0
    0.6706    2.9495   -0.8623 C   0  0  0  0  0  0  0  0  0  0  0  0
    1.4640   -1.0971   -1.3809 C   0  0  0  0  0  0  0  0  0  0  0  0
    1.3635   -2.2953   -0.7687 C   0  0  0  0  0  0  0  0  0  0  0  0
    1.8038   -3.5563   -1.4274 C   0  0  0  0  0  0  0  0  0  0  0  0
    2.3234   -3.5268   -2.6837 C   0  0  0  0  0  0  0  0  0  0  0  0
    2.4376   -2.2242   -3.3666 C   0  0  0  0  0  0  0  0  0  0  0  0
    2.0381   -1.0986   -2.7584 C   0  0  0  0  0  0  0  0  0  0  0  0
    0.5381    0.2404    0.9560 C   0  0  0  0  0  0  0  0  0  0  0  0
    0.9528   -0.9176    1.8211 C   0  0  0  0  0  0  0  0  0  0  0  0
    0.6410   -1.0000    3.1174 C   0  0  0  0  0  0  0  0  0  0  0  0
   -0.1382    0.0562    3.7739 C   0  0  0  0  0  0  0  0  0  0  0  0
   -0.5408    1.1151    3.0411 C   0  0  0  0  0  0  0  0  0  0  0  0
   -0.1950    1.2193    1.5835 C   0  0  0  0  0  0  0  0  0  0  0  0
    3.8092   -4.7076   -4.3237 C   0  0  0  0  0  0  0  0  0  0  0  0
    2.1363   -5.9723   -3.0626 C   0  0  0  0  0  0  0  0  0  0  0  0
   -0.9750    1.1010    5.8711 C   0  0  0  0  0  0  0  0  0  0  0  0
   -0.2756   -1.2715    5.8979 C   0  0  0  0  0  0  0  0  0  0  0  0
  1  2  1  0  0  0  0
  1 10  1  0  0  0  0
  1 16  1  0  0  0  0
  2  4  2  0  0  0  0
  2  9  1  0  0  0  0
  4  6  1  0  0  0  0
  6  7  2  0  0  0  0
  7  8  1  0  0  0  0
  8  9  2  0  0  0  0
 10 11  2  0  0  0  0
 10 15  1  0  0  0  0
 11 12  1  0  0  0  0
 12 13  2  0  0  0  0
 13  3  1  0  0  0  0
 13 14  1  0  0  0  0
 14 15  2  0  0  0  0
 16 17  2  0  0  0  0
 16 21  1  0  0  0  0
 17 18  1  0  0  0  0
 18 19  2  0  0  0  0
 19  5  1  0  0  0  0
 19 20  1  0  0  0  0
 20 21  2  0  0  0  0
 22  3  1  0  0  0  0
 23  3  1  0  0  0  0
 24  5  1  0  0  0  0
 25  5  1  0  0  0  0
M  END
>  <CHROM.1>
7.98632212,-171.59410449,-162.49947255,-150.54798036,167.31903651,1.04261794
-0.50273466,-0.19684740,0.15430072,1.24245886,-0.64819913

>  <Name>
1q8n_lig

>  <RI>
0

>  <Rbt.Current_Directory>
/home/itssahil/PROJECTS/Mol_Feturizer/New_Systems/rnas/1q8n

>  <Rbt.Executable>
rbdock ($Id: //depot/dev/client3/rdock/2013.1/src/exe/rbdock.cxx#4 $)

>  <Rbt.Library>
libRbt.so (2013.1, Build901 2013/11/27)

>  <Rbt.Parameter_File>
/export/apps/rDock/src/rDock_2013.1_src/data/scripts/dock_solv.prm

>  <Rbt.Receptor>
prm/blind_docking_80.prm

>  <SCORE>
-47.2249

>  <SCORE.INTER>
-49.3101

>  <SCORE.INTER.CONST>
1

>  <SCORE.INTER.POLAR>
0

>  <SCORE.INTER.ROT>
5

>  <SCORE.INTER.SOLV>
8.9099

>  <SCORE.INTER.VDW>
-42.7767

>  <SCORE.INTER.norm>
-1.9724

>  <SCORE.INTRA>
2.08521

>  <SCORE.INTRA.DIHEDRAL>
3.71203

>  <SCORE.INTRA.DIHEDRAL.0>
2.1627

>  <SCORE.INTRA.POLAR>
0

>  <SCORE.INTRA.POLAR.0>
0

>  <SCORE.INTRA.REPUL>
0

>  <SCORE.INTRA.REPUL.0>
0

>  <SCORE.INTRA.SOLV>
0.0696097

>  <SCORE.INTRA.SOLV.lig_0>
-5.95779

>  <SCORE.INTRA.VDW>
0.194395

>  <SCORE.INTRA.VDW.0>
3.81702

>  <SCORE.INTRA.norm>
0.0834086

>  <SCORE.RESTR>
0

>  <SCORE.RESTR.CAVITY>
0

>  <SCORE.RESTR.norm>
0

>  <SCORE.SYSTEM>
0

>  <SCORE.SYSTEM.CONST>
0

>  <SCORE.SYSTEM.DIHEDRAL>
0

>  <SCORE.SYSTEM.SOLV>
0

>  <SCORE.SYSTEM.norm>
0

>  <SCORE.heavy>
25

>  <SCORE.norm>
-1.889

>  <RMSD>
2.326

$$$$
1q8n_lig
 OpenBabel11021811403D
libRbt.so/2013.1/901 2013/11/27
 25 27  0  0  0  0  0  0  0  0999 V2000
    0.9114    0.3140   -0.5657 C   0  0  0  0  0  0  0  0  0  0  0  0
    0.8910    1.7099   -1.4121 C   0  0  0  0  0  0  0  0  0  0  0  0
    2.7849   -4.6340   -3.2914 N   0  0  0  0  0  0  0  0  0  0  0  0
    0.6765    2.9228   -0.8484 C   0  0  0  0  0  0  0  0  0  0  0  0
   -0.7276   -0.1447    5.1803 N   0  0  0  0  0  0  0  0  0  0  0  0
    0.6601    4.1657   -1.6539 C   0  0  0  0  0  0  0  0  0  0  0  0
    0.8650    4.1029   -2.9896 C   0  0  0  0  0  0  0  0  0  0  0  0
    1.1024    2.8204   -3.6100 C   0  0  0  0  0  0  0  0  0  0  0  0
    1.1128    1.7067   -2.8732 C   0  0  0  0  0  0  0  0  0  0  0  0
    1.4250   -1.0393   -1.3173 C   0  0  0  0  0  0  0  0  0  0  0  0
    1.9672   -0.9907   -2.5519 C   0  0  0  0  0  0  0  0  0  0  0  0
    2.4414   -2.2159   -3.2532 C   0  0  0  0  0  0  0  0  0  0  0  0
    2.3388   -3.4314   -2.6521 C   0  0  0  0  0  0  0  0  0  0  0  0
    1.7502   -3.5000   -1.3013 C   0  0  0  0  0  0  0  0  0  0  0  0
    1.3267   -2.3876   -0.6851 C   0  0  0  0  0  0  0  0  0  0  0  0
    0.4262    0.2470    1.0183 C   0  0  0  0  0  0  0  0  0  0  0  0
    0.6176   -1.0199    1.8056 C   0  0  0  0  0  0  0  0  0  0  0  0
    0.2577   -1.1364    3.0868 C   0  0  0  0  0  0  0  0  0  0  0  0
   -0.3554   -0.0117    3.8029 C   0  0  0  0  0  0  0  0  0  0  0  0
   -0.5552    1.1467    3.1406 C   0  0  0  0  0  0  0  0  0  0  0  0
   -0.1533    1.2899    1.7009 C   0  0  0  0  0  0  0  0  0  0  0  0
    3.8509   -4.6411   -4.2464 C   0  0  0  0  0  0  0  0  0  0  0  0
    2.1634   -5.8847   -2.9839 C   0  0  0  0  0  0  0  0  0  0  0  0
   -1.0660    1.0144    5.9552 C   0  0  0  0  0  0  0  0  0  0  0  0
   -0.7786   -1.4388    5.8222 C   0  0  0  0  0  0  0  0  0  0  0  0
  1  2  1  0  0  0  0
  1 10  1  0  0  0  0
  1 16  1  0  0  0  0
  2  4  2  0  0  0  0
  2  9  1  0  0  0  0
  4  6  1  0  0  0  0
  6  7  2  0  0  0  0
  7  8  1  0  0  0  0
  8  9  2  0  0  0  0
 10 11  2  0  0  0  0
 10 15  1  0  0  0  0
 11 12  1  0  0  0  0
 12 13  2  0  0  0  0
 13  3  1  0  0  0  0
 13 14  1  0  0  0  0
 14 15  2  0  0  0  0
 16 17  2  0  0  0  0
 16 21  1  0  0  0  0
 17 18  1  0  0  0  0
 18 19  2  0  0  0  0
 19  5  1  0  0  0  0
 19 20  1  0  0  0  0
 20 21  2  0  0  0  0
 22  3  1  0  0  0  0
 23  3  1  0  0  0  0
 24  5  1  0  0  0  0
 25  5  1  0  0  0  0
M  END
>  <CHROM.1>
-169.91457839,7.66671069,-172.63166098,28.72637654,167.10225778,0.96000568
-0.50813872,-0.15095932,3.02818966,-1.21688616,2.57266035

>  <Name>
1q8n_lig

>  <RI>
0

>  <Rbt.Current_Directory>
/home/itssahil/PROJECTS/Mol_Feturizer/New_Systems/rnas/1q8n

>  <Rbt.Executable>
rbdock ($Id: //depot/dev/client3/rdock/2013.1/src/exe/rbdock.cxx#4 $)

>  <Rbt.Library>
libRbt.so (2013.1, Build901 2013/11/27)

>  <Rbt.Parameter_File>
/export/apps/rDock/src/rDock_2013.1_src/data/scripts/dock_solv.prm

>  <Rbt.Receptor>
prm/blind_docking_20.prm

>  <SCORE>
-46.1988

>  <SCORE.INTER>
-48.7224

>  <SCORE.INTER.CONST>
1

>  <SCORE.INTER.POLAR>
0

>  <SCORE.INTER.ROT>
5

>  <SCORE.INTER.SOLV>
8.69439

>  <SCORE.INTER.VDW>
-42.3131

>  <SCORE.INTER.norm>
-1.9489

>  <SCORE.INTRA>
2.52357

>  <SCORE.INTRA.DIHEDRAL>
3.59386

>  <SCORE.INTRA.DIHEDRAL.0>
2.1627

>  <SCORE.INTRA.POLAR>
0

>  <SCORE.INTRA.POLAR.0>
0

>  <SCORE.INTRA.REPUL>
0

>  <SCORE.INTRA.REPUL.0>
0

>  <SCORE.INTRA.SOLV>
0.0746285

>  <SCORE.INTRA.SOLV.lig_0>
-5.95779

>  <SCORE.INTRA.VDW>
0.689328

>  <SCORE.INTRA.VDW.0>
3.81702

>  <SCORE.INTRA.norm>
0.100943

>  <SCORE.RESTR>
0

>  <SCORE.RESTR.CAVITY>
0

>  <SCORE.RESTR.norm>
0

>  <SCORE.SYSTEM>
0

>  <SCORE.SYSTEM.CONST>
0

>  <SCORE.SYSTEM.DIHEDRAL>
0

>  <SCORE.SYSTEM.SOLV>
0

>  <SCORE.SYSTEM.norm>
0

>  <SCORE.heavy>
25

>  <SCORE.norm>
-1.84795

>  <RMSD>
2.338

$$$$
1q8n_lig
 OpenBabel11021811413D
libRbt.so/2013.1/901 2013/11/27
 25 27  0  0  0  0  0  0  0  0999 V2000
    0.9109    0.2733   -0.5744 C   0  0  0  0  0  0  0  0  0  0  0  0
    0.9020    1.6777   -1.4068 C   0  0  0  0  0  0  0  0  0  0  0  0
    2.7707   -4.6571   -3.3409 N   0  0  0  0  0  0  0  0  0  0  0  0
    0.6974    2.8867   -0.8311 C   0  0  0  0  0  0  0  0  0  0  0  0
   -0.7629   -0.2369    5.1572 N   0  0  0  0  0  0  0  0  0  0  0  0
    0.6913    4.1376   -1.6242 C   0  0  0  0  0  0  0  0  0  0  0  0
    0.8957    4.0864   -2.9604 C   0  0  0  0  0  0  0  0  0  0  0  0
    1.1226    2.8083   -3.5935 C   0  0  0  0  0  0  0  0  0  0  0  0
    1.1238    1.6873   -2.8679 C   0  0  0  0  0  0  0  0  0  0  0  0
    1.4206   -1.0752   -1.3372 C   0  0  0  0  0  0  0  0  0  0  0  0
    1.9322   -1.0221   -2.5845 C   0  0  0  0  0  0  0  0  0  0  0  0
    2.4024   -2.2429   -3.2962 C   0  0  0  0  0  0  0  0  0  0  0  0
    2.3274   -3.4588   -2.6919 C   0  0  0  0  0  0  0  0  0  0  0  0
    1.7724   -3.5323   -1.3272 C   0  0  0  0  0  0  0  0  0  0  0  0
    1.3520   -2.4238   -0.7018 C   0  0  0  0  0  0  0  0  0  0  0  0
    0.4181    0.1932    1.0066 C   0  0  0  0  0  0  0  0  0  0  0  0
    0.5665   -1.0931    1.7715 C   0  0  0  0  0  0  0  0  0  0  0  0
    0.1985   -1.2213    3.0491 C   0  0  0  0  0  0  0  0  0  0  0  0
   -0.3816   -0.0910    3.7837 C   0  0  0  0  0  0  0  0  0  0  0  0
   -0.5424    1.0849    3.1418 C   0  0  0  0  0  0  0  0  0  0  0  0
   -0.1309    1.2413    1.7062 C   0  0  0  0  0  0  0  0  0  0  0  0
    3.8508   -4.6624   -4.2800 C   0  0  0  0  0  0  0  0  0  0  0  0
    2.1320   -5.9054   -3.0597 C   0  0  0  0  0  0  0  0  0  0  0  0
   -1.0305    0.9201    5.9624 C   0  0  0  0  0  0  0  0  0  0  0  0
   -0.8938   -1.5419    5.7650 C   0  0  0  0  0  0  0  0  0  0  0  0
  1  2  1  0  0  0  0
  1 10  1  0  0  0  0
  1 16  1  0  0  0  0
  2  4  2  0  0  0  0
  2  9  1  0  0  0  0
  4  6  1  0  0  0  0
  6  7  2  0  0  0  0
  7  8  1  0  0  0  0
  8  9  2  0  0  0  0
 10 11  2  0  0  0  0
 10 15  1  0  0  0  0
 11 12  1  0  0  0  0
 12 13  2  0  0  0  0
 13  3  1  0  0  0  0
 13 14  1  0  0  0  0
 14 15  2  0  0  0  0
 16 17  2  0  0  0  0
 16 21  1  0  0  0  0
 17 18  1  0  0  0  0
 18 19  2  0  0  0  0
 19  5  1  0  0  0  0
 19 20  1  0  0  0  0
 20 21  2  0  0  0  0
 22  3  1  0  0  0  0
 23  3  1  0  0  0  0
 24  5  1  0  0  0  0
 25  5  1  0  0  0  0
M  END
>  <CHROM.1>
-169.60794197,5.67443095,-174.19644682,31.40036923,165.32529451,0.95191044
-0.55382279,-0.16810054,3.05146448,-1.21621204,2.60521840

>  <Name>
1q8n_lig

>  <RI>
0

>  <Rbt.Current_Directory>
/home/itssahil/PROJECTS/Mol_Feturizer/New_Systems/rnas/1q8n

>  <Rbt.Executable>
rbdock ($Id: //depot/dev/client3/rdock/2013.1/src/exe/rbdock.cxx#4 $)

>  <Rbt.Library>
libRbt.so (2013.1, Build901 2013/11/27)

>  <Rbt.Parameter_File>
/export/apps/rDock/src/rDock_2013.1_src/data/scripts/dock_solv.prm

>  <Rbt.Receptor>
prm/pocket_docking_7.prm

>  <SCORE>
-46.0161

>  <SCORE.INTER>
-48.7582

>  <SCORE.INTER.CONST>
1

>  <SCORE.INTER.POLAR>
0

>  <SCORE.INTER.ROT>
5

>  <SCORE.INTER.SOLV>
8.65954

>  <SCORE.INTER.VDW>
-42.3253

>  <SCORE.INTER.norm>
-1.95033

>  <SCORE.INTRA>
2.74208

>  <SCORE.INTRA.DIHEDRAL>
4.29552

>  <SCORE.INTRA.DIHEDRAL.0>
2.1627

>  <SCORE.INTRA.POLAR>
0

>  <SCORE.INTRA.POLAR.0>
0

>  <SCORE.INTRA.REPUL>
0

>  <SCORE.INTRA.REPUL.0>
0

>  <SCORE.INTRA.SOLV>
0.0754745

>  <SCORE.INTRA.SOLV.lig_0>
-5.95779

>  <SCORE.INTRA.VDW>
0.556577

>  <SCORE.INTRA.VDW.0>
3.81702

>  <SCORE.INTRA.norm>
0.109683

>  <SCORE.RESTR>
0

>  <SCORE.RESTR.CAVITY>
0

>  <SCORE.RESTR.norm>
0

>  <SCORE.SYSTEM>
0

>  <SCORE.SYSTEM.CONST>
0

>  <SCORE.SYSTEM.DIHEDRAL>
0

>  <SCORE.SYSTEM.SOLV>
0

>  <SCORE.SYSTEM.norm>
0

>  <SCORE.heavy>
25

>  <SCORE.norm>
-1.84064

>  <RMSD>
2.373

$$$$
1q8n_lig
 OpenBabel11021811413D
libRbt.so/2013.1/901 2013/11/27
 25 27  0  0  0  0  0  0  0  0999 V2000
    0.9724   -0.2709   -0.3989 C   0  0  0  0  0  0  0  0  0  0  0  0
    0.9284    1.2007   -1.1045 C   0  0  0  0  0  0  0  0  0  0  0  0
    2.7073   -4.9339   -3.6651 N   0  0  0  0  0  0  0  0  0  0  0  0
    0.6003    2.3369   -0.4439 C   0  0  0  0  0  0  0  0  0  0  0  0
   -0.6541   -0.8378    5.3410 N   0  0  0  0  0  0  0  0  0  0  0  0
    0.5668    3.6525   -1.1235 C   0  0  0  0  0  0  0  0  0  0  0  0
    0.8711    3.7368   -2.4389 C   0  0  0  0  0  0  0  0  0  0  0  0
    1.2302    2.5384   -3.1606 C   0  0  0  0  0  0  0  0  0  0  0  0
    1.2550    1.3578   -2.5372 C   0  0  0  0  0  0  0  0  0  0  0  0
    1.4456   -1.5465   -1.2984 C   0  0  0  0  0  0  0  0  0  0  0  0
    1.4588   -1.4855   -2.6461 C   0  0  0  0  0  0  0  0  0  0  0  0
    1.8877   -2.6401   -3.4832 C   0  0  0  0  0  0  0  0  0  0  0  0
    2.2853   -3.8006   -2.8962 C   0  0  0  0  0  0  0  0  0  0  0  0
    2.2783   -3.8815   -1.4233 C   0  0  0  0  0  0  0  0  0  0  0  0
    1.8874   -2.8333   -0.6850 C   0  0  0  0  0  0  0  0  0  0  0  0
    0.5503   -0.4898    1.1894 C   0  0  0  0  0  0  0  0  0  0  0  0
    0.0150    0.6674    1.9868 C   0  0  0  0  0  0  0  0  0  0  0  0
   -0.3519    0.5558    3.2664 C   0  0  0  0  0  0  0  0  0  0  0  0
   -0.2475   -0.7271    3.9714 C   0  0  0  0  0  0  0  0  0  0  0  0
    0.2327   -1.7965    3.3033 C   0  0  0  0  0  0  0  0  0  0  0  0
    0.6468   -1.6833    1.8644 C   0  0  0  0  0  0  0  0  0  0  0  0
    3.9700   -4.9732   -4.3378 C   0  0  0  0  0  0  0  0  0  0  0  0
    1.8595   -6.0798   -3.7813 C   0  0  0  0  0  0  0  0  0  0  0  0
   -1.1383    0.3123    6.0489 C   0  0  0  0  0  0  0  0  0  0  0  0
   -0.5948   -2.1008    6.0415 C   0  0  0  0  0  0  0  0  0  0  0  0
  1  2  1  0  0  0  0
  1 10  1  0  0  0  0
  1 16  1  0  0  0  0
  2  4  2  0  0  0  0
  2  9  1  0  0  0  0
  4  6  1  0  0  0  0
  6  7  2  0  0  0  0
  7  8  1  0  0  0  0
  8  9  2  0  0  0  0
 10 11  2  0  0  0  0
 10 15  1  0  0  0  0
 11 12  1  0  0  0  0
 12 13  2  0  0  0  0
 13  3  1  0  0  0  0
 13 14  1  0  0  0  0
 14 15  2  0  0  0  0
 16 17  2  0  0  0  0
 16 21  1  0  0  0  0
 17 18  1  0  0  0  0
 18 19  2  0  0  0  0
 19  5  1  0  0  0  0
 19 20  1  0  0  0  0
 20 21  2  0  0  0  0
 22  3  1  0  0  0  0
 23  3  1  0  0  0  0
 24  5  1  0  0  0  0
 25  5  1  0  0  0  0
M  END
>  <CHROM.1>
-177.44743430,-17.44874058,4.58646116,73.47136620,-1.50242296,0.98755542
-1.01375439,-0.06531496,3.03242523,-1.24178148,2.61054350

>  <Name>
1q8n_lig

>  <RI>
0

>  <Rbt.Current_Directory>
/home/itssahil/PROJECTS/Mol_Feturizer/New_Systems/rnas/1q8n

>  <Rbt.Executable>
rbdock ($Id: //depot/dev/client3/rdock/2013.1/src/exe/rbdock.cxx#4 $)

>  <Rbt.Library>
libRbt.so (2013.1, Build901 2013/11/27)

>  <Rbt.Parameter_File>
/export/apps/rDock/src/rDock_2013.1_src/data/scripts/dock_solv.prm

>  <Rbt.Receptor>
prm/pocket_docking_6.prm

>  <SCORE>
-42.2969

>  <SCORE.INTER>
-47.0176

>  <SCORE.INTER.CONST>
1

>  <SCORE.INTER.POLAR>
0

>  <SCORE.INTER.ROT>
5

>  <SCORE.INTER.SOLV>
8.27724

>  <SCORE.INTER.VDW>
-41.0375

>  <SCORE.INTER.norm>
-1.8807

>  <SCORE.INTRA>
4.72072

>  <SCORE.INTRA.DIHEDRAL>
11.7712

>  <SCORE.INTRA.DIHEDRAL.0>
2.1627

>  <SCORE.INTRA.POLAR>
0

>  <SCORE.INTRA.POLAR.0>
0

>  <SCORE.INTRA.REPUL>
0

>  <SCORE.INTRA.REPUL.0>
0

>  <SCORE.INTRA.SOLV>
0.0720829

>  <SCORE.INTRA.SOLV.lig_0>
-5.95779

>  <SCORE.INTRA.VDW>
-1.20094

>  <SCORE.INTRA.VDW.0>
3.81702

>  <SCORE.INTRA.norm>
0.188829

>  <SCORE.RESTR>
0

>  <SCORE.RESTR.CAVITY>
0

>  <SCORE.RESTR.norm>
0

>  <SCORE.SYSTEM>
0

>  <SCORE.SYSTEM.CONST>
0

>  <SCORE.SYSTEM.DIHEDRAL>
0

>  <SCORE.SYSTEM.SOLV>
0

>  <SCORE.SYSTEM.norm>
0

>  <SCORE.heavy>
25

>  <SCORE.norm>
-1.69187

>  <RMSD>
2.865

$$$$
1q8n_lig
 OpenBabel11021811413D
libRbt.so/2013.1/901 2013/11/27
 25 27  0  0  0  0  0  0  0  0999 V2000
    0.8976   -0.5011   -0.5352 C   0  0  0  0  0  0  0  0  0  0  0  0
    0.7936    0.9708   -1.2340 C   0  0  0  0  0  0  0  0  0  0  0  0
    2.6241   -5.1146   -3.8753 N   0  0  0  0  0  0  0  0  0  0  0  0
    0.8131    2.1322   -0.5370 C   0  0  0  0  0  0  0  0  0  0  0  0
   -0.4911   -1.1124    5.2623 N   0  0  0  0  0  0  0  0  0  0  0  0
    0.7104    3.4477   -1.2098 C   0  0  0  0  0  0  0  0  0  0  0  0
    0.5951    3.5060   -2.5564 C   0  0  0  0  0  0  0  0  0  0  0  0
    0.5791    2.2798   -3.3193 C   0  0  0  0  0  0  0  0  0  0  0  0
    0.6705    1.0998   -2.7010 C   0  0  0  0  0  0  0  0  0  0  0  0
    1.3692   -1.7628   -1.4550 C   0  0  0  0  0  0  0  0  0  0  0  0
    1.5173   -1.6381   -2.7902 C   0  0  0  0  0  0  0  0  0  0  0  0
    1.9470   -2.7790   -3.6455 C   0  0  0  0  0  0  0  0  0  0  0  0
    2.2066   -3.9921   -3.0884 C   0  0  0  0  0  0  0  0  0  0  0  0
    2.0511   -4.1431   -1.6293 C   0  0  0  0  0  0  0  0  0  0  0  0
    1.6617   -3.1061   -0.8745 C   0  0  0  0  0  0  0  0  0  0  0  0
    0.5371   -0.7339    1.0662 C   0  0  0  0  0  0  0  0  0  0  0  0
    0.1182    0.4343    1.9155 C   0  0  0  0  0  0  0  0  0  0  0  0
   -0.1947    0.3130    3.2085 C   0  0  0  0  0  0  0  0  0  0  0  0
   -0.1429   -0.9922    3.8775 C   0  0  0  0  0  0  0  0  0  0  0  0
    0.2331   -2.0726    3.1620 C   0  0  0  0  0  0  0  0  0  0  0  0
    0.5856   -1.9487    1.7076 C   0  0  0  0  0  0  0  0  0  0  0  0
    1.7338   -5.7987   -4.7629 C   0  0  0  0  0  0  0  0  0  0  0  0
    3.9706   -5.5894   -3.7928 C   0  0  0  0  0  0  0  0  0  0  0  0
   -0.8465   -2.3888    5.8126 C   0  0  0  0  0  0  0  0  0  0  0  0
   -0.4887    0.0369    6.1389 C   0  0  0  0  0  0  0  0  0  0  0  0
  1  2  1  0  0  0  0
  1 10  1  0  0  0  0
  1 16  1  0  0  0  0
  2  4  2  0  0  0  0
  2  9  1  0  0  0  0
  4  6  1  0  0  0  0
  6  7  2  0  0  0  0
  7  8  1  0  0  0  0
  8  9  2  0  0  0  0
 10 11  2  0  0  0  0
 10 15  1  0  0  0  0
 11 12  1  0  0  0  0
 12 13  2  0  0  0  0
 13  3  1  0  0  0  0
 13 14  1  0  0  0  0
 14 15  2  0  0  0  0
 16 17  2  0  0  0  0
 16 21  1  0  0  0  0
 17 18  1  0  0  0  0
 18 19  2  0  0  0  0
 19  5  1  0  0  0  0
 19 20  1  0  0  0  0
 20 21  2  0  0  0  0
 22  3  1  0  0  0  0
 23  3  1  0  0  0  0
 24  5  1  0  0  0  0
 25  5  1  0  0  0  0
M  END
>  <CHROM.1>
-159.44973362,-7.80822178,-0.77205258,-71.39024589,160.49776628,0.94233438
-1.24287248,-0.20327031,0.24897996,1.26935664,-0.66427392

>  <Name>
1q8n_lig

>  <RI>
0

>  <Rbt.Current_Directory>
/home/itssahil/PROJECTS/Mol_Feturizer/New_Systems/rnas/1q8n

>  <Rbt.Executable>
rbdock ($Id: //depot/dev/client3/rdock/2013.1/src/exe/rbdock.cxx#4 $)

>  <Rbt.Library>
libRbt.so (2013.1, Build901 2013/11/27)

>  <Rbt.Parameter_File>
/export/apps/rDock/src/rDock_2013.1_src/data/scripts/dock_solv.prm

>  <Rbt.Receptor>
prm/pocket_docking_6.prm

>  <SCORE>
-39.3648

>  <SCORE.INTER>
-44.0788

>  <SCORE.INTER.CONST>
1

>  <SCORE.INTER.POLAR>
0

>  <SCORE.INTER.ROT>
5

>  <SCORE.INTER.SOLV>
7.98439

>  <SCORE.INTER.VDW>
-38.9806

>  <SCORE.INTER.norm>
-1.76315

>  <SCORE.INTRA>
4.71398

>  <SCORE.INTRA.DIHEDRAL>
12.9217

>  <SCORE.INTRA.DIHEDRAL.0>
2.1627

>  <SCORE.INTRA.POLAR>
0

>  <SCORE.INTRA.POLAR.0>
0

>  <SCORE.INTRA.REPUL>
0

>  <SCORE.INTRA.REPUL.0>
0

>  <SCORE.INTRA.SOLV>
0.0695928

>  <SCORE.INTRA.SOLV.lig_0>
-5.95779

>  <SCORE.INTRA.VDW>
-1.78166

>  <SCORE.INTRA.VDW.0>
3.81702

>  <SCORE.INTRA.norm>
0.188559

>  <SCORE.RESTR>
0

>  <SCORE.RESTR.CAVITY>
0

>  <SCORE.RESTR.norm>
0

>  <SCORE.SYSTEM>
0

>  <SCORE.SYSTEM.CONST>
0

>  <SCORE.SYSTEM.DIHEDRAL>
0

>  <SCORE.SYSTEM.SOLV>
0

>  <SCORE.SYSTEM.norm>
0

>  <SCORE.heavy>
25

>  <SCORE.norm>
-1.57459

>  <RMSD>
2.991

$$$$
1q8n_lig
 OpenBabel11021811413D
libRbt.so/2013.1/901 2013/11/27
 25 27  0  0  0  0  0  0  0  0999 V2000
    1.0663   -0.5758   -1.2257 C   0  0  0  0  0  0  0  0  0  0  0  0
    0.5801    0.7558   -2.0357 C   0  0  0  0  0  0  0  0  0  0  0  0
    4.2013   -4.6964   -4.1607 N   0  0  0  0  0  0  0  0  0  0  0  0
    1.4359    1.6467   -2.5913 C   0  0  0  0  0  0  0  0  0  0  0  0
   -0.1460   -1.6228    4.5490 N   0  0  0  0  0  0  0  0  0  0  0  0
    0.9531    2.8463   -3.3136 C   0  0  0  0  0  0  0  0  0  0  0  0
   -0.3759    3.0699   -3.4307 C   0  0  0  0  0  0  0  0  0  0  0  0
   -1.3059    2.1289   -2.8516 C   0  0  0  0  0  0  0  0  0  0  0  0
   -0.8582    1.0521   -2.2011 C   0  0  0  0  0  0  0  0  0  0  0  0
    1.9278   -1.7011   -2.0329 C   0  0  0  0  0  0  0  0  0  0  0  0
    3.0017   -1.3602   -2.7751 C   0  0  0  0  0  0  0  0  0  0  0  0
    3.7999   -2.3741   -3.5187 C   0  0  0  0  0  0  0  0  0  0  0  0
    3.4587   -3.6893   -3.4621 C   0  0  0  0  0  0  0  0  0  0  0  0
    2.2881   -4.0775   -2.6528 C   0  0  0  0  0  0  0  0  0  0  0  0
    1.5796   -3.1517   -1.9913 C   0  0  0  0  0  0  0  0  0  0  0  0
    0.7052   -0.8026    0.3765 C   0  0  0  0  0  0  0  0  0  0  0  0
    0.8270   -2.1732    0.9833 C   0  0  0  0  0  0  0  0  0  0  0  0
    0.5608   -2.4212    2.2686 C   0  0  0  0  0  0  0  0  0  0  0  0
    0.1265   -1.3472    3.1695 C   0  0  0  0  0  0  0  0  0  0  0  0
   -0.0050   -0.0992    2.6738 C   0  0  0  0  0  0  0  0  0  0  0  0
    0.2929    0.1919    1.2311 C   0  0  0  0  0  0  0  0  0  0  0  0
    3.9504   -6.0938   -3.9798 C   0  0  0  0  0  0  0  0  0  0  0  0
    5.2335   -4.3225   -5.0772 C   0  0  0  0  0  0  0  0  0  0  0  0
    0.1253   -2.9208    5.0966 C   0  0  0  0  0  0  0  0  0  0  0  0
   -0.6914   -0.6089    5.4231 C   0  0  0  0  0  0  0  0  0  0  0  0
  1  2  1  0  0  0  0
  1 10  1  0  0  0  0
  1 16  1  0  0  0  0
  2  4  2  0  0  0  0
  2  9  1  0  0  0  0
  4  6  1  0  0  0  0
  6  7  2  0  0  0  0
  7  8  1  0  0  0  0
  8  9  2  0  0  0  0
 10 11  2  0  0  0  0
 10 15  1  0  0  0  0
 11 12  1  0  0  0  0
 12 13  2  0  0  0  0
 13  3  1  0  0  0  0
 13 14  1  0  0  0  0
 14 15  2  0  0  0  0
 16 17  2  0  0  0  0
 16 21  1  0  0  0  0
 17 18  1  0  0  0  0
 18 19  2  0  0  0  0
 19  5  1  0  0  0  0
 19 20  1  0  0  0  0
 20 21  2  0  0  0  0
 22  3  1  0  0  0  0
 23  3  1  0  0  0  0
 24  5  1  0  0  0  0
 25  5  1  0  0  0  0
M  END
>  <CHROM.1>
-61.99926654,49.60144990,163.12279164,172.29413563,6.03294665,1.33341401
-1.35755479,-0.82588260,0.60399135,1.01786648,-1.00497094

>  <Name>
1q8n_lig

>  <RI>
0

>  <Rbt.Current_Directory>
/home/itssahil/PROJECTS/Mol_Feturizer/New_Systems/rnas/1q8n

>  <Rbt.Executable>
rbdock ($Id: //depot/dev/client3/rdock/2013.1/src/exe/rbdock.cxx#4 $)

>  <Rbt.Library>
libRbt.so (2013.1, Build901 2013/11/27)

>  <Rbt.Parameter_File>
/export/apps/rDock/src/rDock_2013.1_src/data/scripts/dock_solv.prm

>  <Rbt.Receptor>
prm/pocket_docking_8.prm

>  <SCORE>
-35.202

>  <SCORE.INTER>
-35.2189

>  <SCORE.INTER.CONST>
1

>  <SCORE.INTER.POLAR>
0

>  <SCORE.INTER.ROT>
5

>  <SCORE.INTER.SOLV>
8.89101

>  <SCORE.INTER.VDW>
-33.3763

>  <SCORE.INTER.norm>
-1.40876

>  <SCORE.INTRA>
0.0169443

>  <SCORE.INTRA.DIHEDRAL>
0.36664

>  <SCORE.INTRA.DIHEDRAL.0>
2.1627

>  <SCORE.INTRA.POLAR>
0

>  <SCORE.INTRA.POLAR.0>
0

>  <SCORE.INTRA.REPUL>
0

>  <SCORE.INTRA.REPUL.0>
0

>  <SCORE.INTRA.SOLV>
-0.00496253

>  <SCORE.INTRA.SOLV.lig_0>
-5.95779

>  <SCORE.INTRA.VDW>
-0.163895

>  <SCORE.INTRA.VDW.0>
3.81702

>  <SCORE.INTRA.norm>
0.000677771

>  <SCORE.RESTR>
0

>  <SCORE.RESTR.CAVITY>
0

>  <SCORE.RESTR.norm>
0

>  <SCORE.SYSTEM>
0

>  <SCORE.SYSTEM.CONST>
0

>  <SCORE.SYSTEM.DIHEDRAL>
0

>  <SCORE.SYSTEM.SOLV>
0

>  <SCORE.SYSTEM.norm>
0

>  <SCORE.heavy>
25

>  <SCORE.norm>
-1.40808

>  <RMSD>
3.053

$$$$
1q8n_lig
 OpenBabel11021811413D
libRbt.so/2013.1/901 2013/11/27
 25 27  0  0  0  0  0  0  0  0999 V2000
    0.8267   -0.8175   -0.2385 C   0  0  0  0  0  0  0  0  0  0  0  0
    0.5829    0.7105   -0.7591 C   0  0  0  0  0  0  0  0  0  0  0  0
   -0.2638   -2.0412    5.4829 N   0  0  0  0  0  0  0  0  0  0  0  0
    0.7247    1.8012    0.0316 C   0  0  0  0  0  0  0  0  0  0  0  0
    2.8035   -4.9592   -4.0923 N   0  0  0  0  0  0  0  0  0  0  0  0
    0.4881    3.1713   -0.4791 C   0  0  0  0  0  0  0  0  0  0  0  0
    0.1213    3.3532   -1.7684 C   0  0  0  0  0  0  0  0  0  0  0  0
   -0.0291    2.2044   -2.6306 C   0  0  0  0  0  0  0  0  0  0  0  0
    0.1853    0.9740   -2.1579 C   0  0  0  0  0  0  0  0  0  0  0  0
    0.5280   -1.1581    1.3283 C   0  0  0  0  0  0  0  0  0  0  0  0
    0.7177   -2.3991    1.8227 C   0  0  0  0  0  0  0  0  0  0  0  0
    0.4502   -2.7281    3.2503 C   0  0  0  0  0  0  0  0  0  0  0  0
    0.0036   -1.7667    4.1021 C   0  0  0  0  0  0  0  0  0  0  0  0
   -0.2065   -0.4045    3.5764 C   0  0  0  0  0  0  0  0  0  0  0  0
    0.0376   -0.1260    2.2881 C   0  0  0  0  0  0  0  0  0  0  0  0
    1.3651   -2.0104   -1.2563 C   0  0  0  0  0  0  0  0  0  0  0  0
    1.5730   -1.7106   -2.7152 C   0  0  0  0  0  0  0  0  0  0  0  0
    2.0135   -2.6233   -3.5855 C   0  0  0  0  0  0  0  0  0  0  0  0
    2.3213   -3.9913   -3.1521 C   0  0  0  0  0  0  0  0  0  0  0  0
    2.1462   -4.3147   -1.8540 C   0  0  0  0  0  0  0  0  0  0  0  0
    1.6530   -3.2967   -0.8664 C   0  0  0  0  0  0  0  0  0  0  0  0
   -1.0717   -1.1789    6.2906 C   0  0  0  0  0  0  0  0  0  0  0  0
    0.2807   -3.2096    6.1022 C   0  0  0  0  0  0  0  0  0  0  0  0
    4.1835   -4.9641   -4.4848 C   0  0  0  0  0  0  0  0  0  0  0  0
    1.9235   -5.9538   -4.6631 C   0  0  0  0  0  0  0  0  0  0  0  0
  1  2  1  0  0  0  0
  1 10  1  0  0  0  0
  1 16  1  0  0  0  0
  2  4  2  0  0  0  0
  2  9  1  0  0  0  0
  4  6  1  0  0  0  0
  6  7  2  0  0  0  0
  7  8  1  0  0  0  0
  8  9  2  0  0  0  0
 10 11  2  0  0  0  0
 10 15  1  0  0  0  0
 11 12  1  0  0  0  0
 12 13  2  0  0  0  0
 13  3  1  0  0  0  0
 13 14  1  0  0  0  0
 14 15  2  0  0  0  0
 16 17  2  0  0  0  0
 16 21  1  0  0  0  0
 17 18  1  0  0  0  0
 18 19  2  0  0  0  0
 19  5  1  0  0  0  0
 19 20  1  0  0  0  0
 20 21  2  0  0  0  0
 22  3  1  0  0  0  0
 23  3  1  0  0  0  0
 24  5  1  0  0  0  0
 25  5  1  0  0  0  0
M  END
>  <CHROM.1>
30.08547991,-179.56998405,-3.15324600,-161.96835223,79.79144740,0.94557102
-1.56415308,0.00627585,2.64619588,-1.23686550,2.31590498

>  <Name>
1q8n_lig

>  <RI>
0

>  <Rbt.Current_Directory>
/home/itssahil/PROJECTS/Mol_Feturizer/New_Systems/rnas/1q8n

>  <Rbt.Executable>
rbdock ($Id: //depot/dev/client3/rdock/2013.1/src/exe/rbdock.cxx#4 $)

>  <Rbt.Library>
libRbt.so (2013.1, Build901 2013/11/27)

>  <Rbt.Parameter_File>
/export/apps/rDock/src/rDock_2013.1_src/data/scripts/dock_solv.prm

>  <Rbt.Receptor>
prm/pocket_docking_8.prm

>  <SCORE>
-38.1198

>  <SCORE.INTER>
-42.4175

>  <SCORE.INTER.CONST>
1

>  <SCORE.INTER.POLAR>
0

>  <SCORE.INTER.ROT>
5

>  <SCORE.INTER.SOLV>
7.63284

>  <SCORE.INTER.VDW>
-37.7559

>  <SCORE.INTER.norm>
-1.6967

>  <SCORE.INTRA>
4.29766

>  <SCORE.INTRA.DIHEDRAL>
13.6216

>  <SCORE.INTRA.DIHEDRAL.0>
2.1627

>  <SCORE.INTRA.POLAR>
0

>  <SCORE.INTRA.POLAR.0>
0

>  <SCORE.INTRA.REPUL>
0

>  <SCORE.INTRA.REPUL.0>
0

>  <SCORE.INTRA.SOLV>
0.0615732

>  <SCORE.INTRA.SOLV.lig_0>
-5.95779

>  <SCORE.INTRA.VDW>
-2.54392

>  <SCORE.INTRA.VDW.0>
3.81702

>  <SCORE.INTRA.norm>
0.171907

>  <SCORE.RESTR>
0

>  <SCORE.RESTR.CAVITY>
0

>  <SCORE.RESTR.norm>
0

>  <SCORE.SYSTEM>
0

>  <SCORE.SYSTEM.CONST>
0

>  <SCORE.SYSTEM.DIHEDRAL>
0

>  <SCORE.SYSTEM.SOLV>
0

>  <SCORE.SYSTEM.norm>
0

>  <SCORE.heavy>
25

>  <SCORE.norm>
-1.52479

>  <RMSD>
3.539

$$$$
1q8n_lig
 OpenBabel11021811403D
libRbt.so/2013.1/901 2013/11/27
 25 27  0  0  0  0  0  0  0  0999 V2000
    0.7822   -1.0052   -0.2956 C   0  0  0  0  0  0  0  0  0  0  0  0
    0.5401    0.5010   -0.8771 C   0  0  0  0  0  0  0  0  0  0  0  0
    2.7747   -5.2003   -4.0175 N   0  0  0  0  0  0  0  0  0  0  0  0
    0.9835    1.6214   -0.2581 C   0  0  0  0  0  0  0  0  0  0  0  0
   -0.2006   -2.6078    5.3947 N   0  0  0  0  0  0  0  0  0  0  0  0
    0.7374    2.9709   -0.8170 C   0  0  0  0  0  0  0  0  0  0  0  0
    0.0540    3.1028   -1.9770 C   0  0  0  0  0  0  0  0  0  0  0  0
   -0.4218    1.9207   -2.6568 C   0  0  0  0  0  0  0  0  0  0  0  0
   -0.1952    0.7097   -2.1419 C   0  0  0  0  0  0  0  0  0  0  0  0
    1.3266   -2.1519   -1.3197 C   0  0  0  0  0  0  0  0  0  0  0  0
    1.4889   -1.8954   -2.6344 C   0  0  0  0  0  0  0  0  0  0  0  0
    1.9847   -2.9300   -3.5839 C   0  0  0  0  0  0  0  0  0  0  0  0
    2.2928   -4.1770   -3.1375 C   0  0  0  0  0  0  0  0  0  0  0  0
    2.1226   -4.4717   -1.7021 C   0  0  0  0  0  0  0  0  0  0  0  0
    1.6733   -3.5292   -0.8616 C   0  0  0  0  0  0  0  0  0  0  0  0
    0.4883   -1.3854    1.2912 C   0  0  0  0  0  0  0  0  0  0  0  0
    0.5656   -2.8176    1.7433 C   0  0  0  0  0  0  0  0  0  0  0  0
    0.3496   -3.1894    3.0080 C   0  0  0  0  0  0  0  0  0  0  0  0
    0.0185   -2.1988    4.0389 C   0  0  0  0  0  0  0  0  0  0  0  0
   -0.0696   -0.8998    3.6849 C   0  0  0  0  0  0  0  0  0  0  0  0
    0.1726   -0.4699    2.2667 C   0  0  0  0  0  0  0  0  0  0  0  0
    4.1564   -5.5691   -4.0759 C   0  0  0  0  0  0  0  0  0  0  0  0
    1.8674   -5.8947   -4.8776 C   0  0  0  0  0  0  0  0  0  0  0  0
   -1.2673   -2.0323    6.1624 C   0  0  0  0  0  0  0  0  0  0  0  0
    0.6350   -3.6072    6.0212 C   0  0  0  0  0  0  0  0  0  0  0  0
  1  2  1  0  0  0  0
  1 10  1  0  0  0  0
  1 16  1  0  0  0  0
  2  4  2  0  0  0  0
  2  9  1  0  0  0  0
  4  6  1  0  0  0  0
  6  7  2  0  0  0  0
  7  8  1  0  0  0  0
  8  9  2  0  0  0  0
 10 11  2  0  0  0  0
 10 15  1  0  0  0  0
 11 12  1  0  0  0  0
 12 13  2  0  0  0  0
 13  3  1  0  0  0  0
 13 14  1  0  0  0  0
 14 15  2  0  0  0  0
 16 17  2  0  0  0  0
 16 21  1  0  0  0  0
 17 18  1  0  0  0  0
 18 19  2  0  0  0  0
 19  5  1  0  0  0  0
 19 20  1  0  0  0  0
 20 21  2  0  0  0  0
 22  3  1  0  0  0  0
 23  3  1  0  0  0  0
 24  5  1  0  0  0  0
 25  5  1  0  0  0  0
M  END
>  <CHROM.1>
-132.64654688,-4.44942103,172.62884732,102.81319050,-138.63300982,0.92690913
-1.87986882,-0.04007016,0.60216870,1.22837002,-0.86867189

>  <Name>
1q8n_lig

>  <RI>
0

>  <Rbt.Current_Directory>
/home/itssahil/PROJECTS/Mol_Feturizer/New_Systems/rnas/1q8n

>  <Rbt.Executable>
rbdock ($Id: //depot/dev/client3/rdock/2013.1/src/exe/rbdock.cxx#4 $)

>  <Rbt.Library>
libRbt.so (2013.1, Build901 2013/11/27)

>  <Rbt.Parameter_File>
/export/apps/rDock/src/rDock_2013.1_src/data/scripts/dock_solv.prm

>  <Rbt.Receptor>
prm/blind_docking_80.prm

>  <SCORE>
-37.0876

>  <SCORE.INTER>
-42.0661

>  <SCORE.INTER.CONST>
1

>  <SCORE.INTER.POLAR>
0

>  <SCORE.INTER.ROT>
5

>  <SCORE.INTER.SOLV>
8.29508

>  <SCORE.INTER.VDW>
-37.7424

>  <SCORE.INTER.norm>
-1.68264

>  <SCORE.INTRA>
4.97845

>  <SCORE.INTRA.DIHEDRAL>
17.7556

>  <SCORE.INTRA.DIHEDRAL.0>
2.1627

>  <SCORE.INTRA.POLAR>
0

>  <SCORE.INTRA.POLAR.0>
0

>  <SCORE.INTRA.REPUL>
0

>  <SCORE.INTRA.REPUL.0>
0

>  <SCORE.INTRA.SOLV>
0.0440854

>  <SCORE.INTRA.SOLV.lig_0>
-5.95779

>  <SCORE.INTRA.VDW>
-3.92141

>  <SCORE.INTRA.VDW.0>
3.81702

>  <SCORE.INTRA.norm>
0.199138

>  <SCORE.RESTR>
0

>  <SCORE.RESTR.CAVITY>
0

>  <SCORE.RESTR.norm>
0

>  <SCORE.SYSTEM>
0

>  <SCORE.SYSTEM.CONST>
0

>  <SCORE.SYSTEM.DIHEDRAL>
0

>  <SCORE.SYSTEM.SOLV>
0

>  <SCORE.SYSTEM.norm>
0

>  <SCORE.heavy>
25

>  <SCORE.norm>
-1.4835

>  <RMSD>
3.749

$$$$
1q8n_lig
 OpenBabel11021811403D
libRbt.so/2013.1/901 2013/11/27
 25 27  0  0  0  0  0  0  0  0999 V2000
    1.3116   -1.1262   -0.4092 C   0  0  0  0  0  0  0  0  0  0  0  0
    0.7803    0.3860   -0.7198 C   0  0  0  0  0  0  0  0  0  0  0  0
    0.5529   -3.3353    5.0649 N   0  0  0  0  0  0  0  0  0  0  0  0
    0.8559    1.4027    0.1721 C   0  0  0  0  0  0  0  0  0  0  0  0
    3.8194   -4.6386   -4.5669 N   0  0  0  0  0  0  0  0  0  0  0  0
    0.3564    2.7600   -0.1477 C   0  0  0  0  0  0  0  0  0  0  0  0
   -0.1911    3.0055   -1.3602 C   0  0  0  0  0  0  0  0  0  0  0  0
   -0.2752    1.9373   -2.3285 C   0  0  0  0  0  0  0  0  0  0  0  0
    0.1769    0.7174   -2.0275 C   0  0  0  0  0  0  0  0  0  0  0  0
    1.1023   -1.7266    1.0927 C   0  0  0  0  0  0  0  0  0  0  0  0
    0.4511   -1.0236    2.0425 C   0  0  0  0  0  0  0  0  0  0  0  0
    0.2509   -1.5560    3.4189 C   0  0  0  0  0  0  0  0  0  0  0  0
    0.7262   -2.7856    3.7528 C   0  0  0  0  0  0  0  0  0  0  0  0
    1.4384   -3.5669    2.7241 C   0  0  0  0  0  0  0  0  0  0  0  0
    1.6115   -3.0719    1.4906 C   0  0  0  0  0  0  0  0  0  0  0  0
    2.0494   -2.0479   -1.5732 C   0  0  0  0  0  0  0  0  0  0  0  0
    1.6980   -3.5039   -1.7075 C   0  0  0  0  0  0  0  0  0  0  0  0
    2.2483   -4.2986   -2.6295 C   0  0  0  0  0  0  0  0  0  0  0  0
    3.2436   -3.7796   -3.5750 C   0  0  0  0  0  0  0  0  0  0  0  0
    3.5992   -2.4806   -3.4936 C   0  0  0  0  0  0  0  0  0  0  0  0
    2.9862   -1.5775   -2.4623 C   0  0  0  0  0  0  0  0  0  0  0  0
    1.3194   -4.4494    5.5337 C   0  0  0  0  0  0  0  0  0  0  0  0
   -0.4105   -2.7716    5.9590 C   0  0  0  0  0  0  0  0  0  0  0  0
    3.0559   -5.7191   -5.1220 C   0  0  0  0  0  0  0  0  0  0  0  0
    5.1716   -4.4402   -5.0377 C   0  0  0  0  0  0  0  0  0  0  0  0
  1  2  1  0  0  0  0
  1 10  1  0  0  0  0
  1 16  1  0  0  0  0
  2  4  2  0  0  0  0
  2  9  1  0  0  0  0
  4  6  1  0  0  0  0
  6  7  2  0  0  0  0
  7  8  1  0  0  0  0
  8  9  2  0  0  0  0
 10 11  2  0  0  0  0
 10 15  1  0  0  0  0
 11 12  1  0  0  0  0
 12 13  2  0  0  0  0
 13  3  1  0  0  0  0
 13 14  1  0  0  0  0
 14 15  2  0  0  0  0
 16 17  2  0  0  0  0
 16 21  1  0  0  0  0
 17 18  1  0  0  0  0
 18 19  2  0  0  0  0
 19  5  1  0  0  0  0
 19 20  1  0  0  0  0
 20 21  2  0  0  0  0
 22  3  1  0  0  0  0
 23  3  1  0  0  0  0
 24  5  1  0  0  0  0
 25  5  1  0  0  0  0
M  END
>  <CHROM.1>
37.21333231,3.12633644,-137.29752427,-163.78081531,31.55835094,1.53888879
-1.97825517,-0.22005664,2.42620516,-1.12108100,2.20961748

>  <Name>
1q8n_lig

>  <RI>
0

>  <Rbt.Current_Directory>
/home/itssahil/PROJECTS/Mol_Feturizer/New_Systems/rnas/1q8n

>  <Rbt.Executable>
rbdock ($Id: //depot/dev/client3/rdock/2013.1/src/exe/rbdock.cxx#4 $)

>  <Rbt.Library>
libRbt.so (2013.1, Build901 2013/11/27)

>  <Rbt.Parameter_File>
/export/apps/rDock/src/rDock_2013.1_src/data/scripts/dock_solv.prm

>  <Rbt.Receptor>
prm/blind_docking_80.prm

>  <SCORE>
-36.7539

>  <SCORE.INTER>
-37.7763

>  <SCORE.INTER.CONST>
1

>  <SCORE.INTER.POLAR>
0

>  <SCORE.INTER.ROT>
5

>  <SCORE.INTER.SOLV>
8.11651

>  <SCORE.INTER.VDW>
-34.823

>  <SCORE.INTER.norm>
-1.51105

>  <SCORE.INTRA>
1.02244

>  <SCORE.INTRA.DIHEDRAL>
4.50173

>  <SCORE.INTRA.DIHEDRAL.0>
2.1627

>  <SCORE.INTRA.POLAR>
0

>  <SCORE.INTRA.POLAR.0>
0

>  <SCORE.INTRA.REPUL>
0

>  <SCORE.INTRA.REPUL.0>
0

>  <SCORE.INTRA.SOLV>
0.0253159

>  <SCORE.INTRA.SOLV.lig_0>
-5.95779

>  <SCORE.INTRA.VDW>
-1.24109

>  <SCORE.INTRA.VDW.0>
3.81702

>  <SCORE.INTRA.norm>
0.0408976

>  <SCORE.RESTR>
0

>  <SCORE.RESTR.CAVITY>
0

>  <SCORE.RESTR.norm>
0

>  <SCORE.SYSTEM>
0

>  <SCORE.SYSTEM.CONST>
0

>  <SCORE.SYSTEM.DIHEDRAL>
0

>  <SCORE.SYSTEM.SOLV>
0

>  <SCORE.SYSTEM.norm>
0

>  <SCORE.heavy>
25

>  <SCORE.norm>
-1.47016

>  <RMSD>
4.205

$$$$
1q8n_lig
 OpenBabel11021811403D
libRbt.so/2013.1/901 2013/11/27
 25 27  0  0  0  0  0  0  0  0999 V2000
    0.7672   -1.2596   -0.0938 C   0  0  0  0  0  0  0  0  0  0  0  0
    0.3626    0.2460   -0.5784 C   0  0  0  0  0  0  0  0  0  0  0  0
    2.8020   -5.0731   -4.1851 N   0  0  0  0  0  0  0  0  0  0  0  0
   -0.4656    0.4987   -1.6200 C   0  0  0  0  0  0  0  0  0  0  0  0
    0.2945   -3.2106    5.5527 N   0  0  0  0  0  0  0  0  0  0  0  0
   -0.8029    1.8811   -2.0312 C   0  0  0  0  0  0  0  0  0  0  0  0
   -0.2779    2.9293   -1.3561 C   0  0  0  0  0  0  0  0  0  0  0  0
    0.6022    2.6822   -0.2380 C   0  0  0  0  0  0  0  0  0  0  0  0
    0.9001    1.4312    0.1218 C   0  0  0  0  0  0  0  0  0  0  0  0
    1.3265   -2.3080   -1.2111 C   0  0  0  0  0  0  0  0  0  0  0  0
    1.6555   -3.5738   -0.8796 C   0  0  0  0  0  0  0  0  0  0  0  0
    2.1677   -4.5444   -1.8863 C   0  0  0  0  0  0  0  0  0  0  0  0
    2.3146   -4.1696   -3.1853 C   0  0  0  0  0  0  0  0  0  0  0  0
    1.9569   -2.7893   -3.5632 C   0  0  0  0  0  0  0  0  0  0  0  0
    1.4990   -1.9279   -2.6439 C   0  0  0  0  0  0  0  0  0  0  0  0
    0.6212   -1.7359    1.4875 C   0  0  0  0  0  0  0  0  0  0  0  0
    0.6306   -3.2000    1.8311 C   0  0  0  0  0  0  0  0  0  0  0  0
    0.5267   -3.6493    3.0847 C   0  0  0  0  0  0  0  0  0  0  0  0
    0.3944   -2.7177    4.2109 C   0  0  0  0  0  0  0  0  0  0  0  0
    0.3743   -1.3927    3.9570 C   0  0  0  0  0  0  0  0  0  0  0  0
    0.4919   -0.8759    2.5520 C   0  0  0  0  0  0  0  0  0  0  0  0
    1.9294   -5.9207   -4.9392 C   0  0  0  0  0  0  0  0  0  0  0  0
    4.2029   -5.1518   -4.4616 C   0  0  0  0  0  0  0  0  0  0  0  0
    1.0911   -4.3260    5.9768 C   0  0  0  0  0  0  0  0  0  0  0  0
   -0.5989   -2.6006    6.5115 C   0  0  0  0  0  0  0  0  0  0  0  0
  1  2  1  0  0  0  0
  1 10  1  0  0  0  0
  1 16  1  0  0  0  0
  2  4  2  0  0  0  0
  2  9  1  0  0  0  0
  4  6  1  0  0  0  0
  6  7  2  0  0  0  0
  7  8  1  0  0  0  0
  8  9  2  0  0  0  0
 10 11  2  0  0  0  0
 10 15  1  0  0  0  0
 11 12  1  0  0  0  0
 12 13  2  0  0  0  0
 13  3  1  0  0  0  0
 13 14  1  0  0  0  0
 14 15  2  0  0  0  0
 16 17  2  0  0  0  0
 16 21  1  0  0  0  0
 17 18  1  0  0  0  0
 18 19  2  0  0  0  0
 19  5  1  0  0  0  0
 19 20  1  0  0  0  0
 20 21  2  0  0  0  0
 22  3  1  0  0  0  0
 23  3  1  0  0  0  0
 24  5  1  0  0  0  0
 25  5  1  0  0  0  0
M  END
>  <CHROM.1>
51.30289764,-178.80830660,163.00002628,89.33042167,39.65652848,1.01000869
-2.10157936,0.11578451,0.82159030,1.22332723,-1.02469823

>  <Name>
1q8n_lig

>  <RI>
0

>  <Rbt.Current_Directory>
/home/itssahil/PROJECTS/Mol_Feturizer/New_Systems/rnas/1q8n

>  <Rbt.Executable>
rbdock ($Id: //depot/dev/client3/rdock/2013.1/src/exe/rbdock.cxx#4 $)

>  <Rbt.Library>
libRbt.so (2013.1, Build901 2013/11/27)

>  <Rbt.Parameter_File>
/export/apps/rDock/src/rDock_2013.1_src/data/scripts/dock_solv.prm

>  <Rbt.Receptor>
prm/blind_docking_80.prm

>  <SCORE>
-36.6583

>  <SCORE.INTER>
-41.5943

>  <SCORE.INTER.CONST>
1

>  <SCORE.INTER.POLAR>
0

>  <SCORE.INTER.ROT>
5

>  <SCORE.INTER.SOLV>
8.32786

>  <SCORE.INTER.VDW>
-37.4388

>  <SCORE.INTER.norm>
-1.66377

>  <SCORE.INTRA>
4.93598

>  <SCORE.INTRA.DIHEDRAL>
18.0056

>  <SCORE.INTRA.DIHEDRAL.0>
2.1627

>  <SCORE.INTRA.POLAR>
0

>  <SCORE.INTRA.POLAR.0>
0

>  <SCORE.INTRA.REPUL>
0

>  <SCORE.INTRA.REPUL.0>
0

>  <SCORE.INTRA.SOLV>
0.0359432

>  <SCORE.INTRA.SOLV.lig_0>
-5.95779

>  <SCORE.INTRA.VDW>
-4.08481

>  <SCORE.INTRA.VDW.0>
3.81702

>  <SCORE.INTRA.norm>
0.197439

>  <SCORE.RESTR>
0

>  <SCORE.RESTR.CAVITY>
0

>  <SCORE.RESTR.norm>
0

>  <SCORE.SYSTEM>
0

>  <SCORE.SYSTEM.CONST>
0

>  <SCORE.SYSTEM.DIHEDRAL>
0

>  <SCORE.SYSTEM.SOLV>
0

>  <SCORE.SYSTEM.norm>
0

>  <SCORE.heavy>
25

>  <SCORE.norm>
-1.46633

>  <RMSD>
4.205

$$$$
1q8n_lig
 OpenBabel11021811403D
libRbt.so/2013.1/901 2013/11/27
 25 27  0  0  0  0  0  0  0  0999 V2000
    0.9346   -1.3337   -0.0396 C   0  0  0  0  0  0  0  0  0  0  0  0
    0.5498    0.2053   -0.4252 C   0  0  0  0  0  0  0  0  0  0  0  0
    2.9147   -4.9313   -4.3475 N   0  0  0  0  0  0  0  0  0  0  0  0
   -0.4219    0.9121    0.2003 C   0  0  0  0  0  0  0  0  0  0  0  0
    0.3070   -3.1925    5.6229 N   0  0  0  0  0  0  0  0  0  0  0  0
   -0.7438    2.3057   -0.1845 C   0  0  0  0  0  0  0  0  0  0  0  0
   -0.0557    2.9019   -1.1850 C   0  0  0  0  0  0  0  0  0  0  0  0
    0.9890    2.1686   -1.8608 C   0  0  0  0  0  0  0  0  0  0  0  0
    1.2685    0.9120   -1.5060 C   0  0  0  0  0  0  0  0  0  0  0  0
    1.4758   -2.3160   -1.2239 C   0  0  0  0  0  0  0  0  0  0  0  0
    1.6785   -1.8560   -2.4759 C   0  0  0  0  0  0  0  0  0  0  0  0
    2.1721   -2.7383   -3.5695 C   0  0  0  0  0  0  0  0  0  0  0  0
    2.4366   -4.0494   -3.3241 C   0  0  0  0  0  0  0  0  0  0  0  0
    2.2218   -4.5663   -1.9593 C   0  0  0  0  0  0  0  0  0  0  0  0
    1.7753   -3.7587   -0.9871 C   0  0  0  0  0  0  0  0  0  0  0  0
    0.7865   -1.9083    1.5085 C   0  0  0  0  0  0  0  0  0  0  0  0
    0.4347   -0.9647    2.6255 C   0  0  0  0  0  0  0  0  0  0  0  0
    0.2910   -1.3648    3.8918 C   0  0  0  0  0  0  0  0  0  0  0  0
    0.4742   -2.7727    4.2631 C   0  0  0  0  0  0  0  0  0  0  0  0
    0.7970   -3.6603    3.2994 C   0  0  0  0  0  0  0  0  0  0  0  0
    0.9596   -3.2225    1.8722 C   0  0  0  0  0  0  0  0  0  0  0  0
    2.0647   -5.8855   -4.9920 C   0  0  0  0  0  0  0  0  0  0  0  0
    4.2829   -4.8785   -4.7604 C   0  0  0  0  0  0  0  0  0  0  0  0
   -0.5852   -2.4850    6.4958 C   0  0  0  0  0  0  0  0  0  0  0  0
    1.0210   -4.3340    6.1489 C   0  0  0  0  0  0  0  0  0  0  0  0
  1  2  1  0  0  0  0
  1 10  1  0  0  0  0
  1 16  1  0  0  0  0
  2  4  2  0  0  0  0
  2  9  1  0  0  0  0
  4  6  1  0  0  0  0
  6  7  2  0  0  0  0
  7  8  1  0  0  0  0
  8  9  2  0  0  0  0
 10 11  2  0  0  0  0
 10 15  1  0  0  0  0
 11 12  1  0  0  0  0
 12 13  2  0  0  0  0
 13  3  1  0  0  0  0
 13 14  1  0  0  0  0
 14 15  2  0  0  0  0
 16 17  2  0  0  0  0
 16 21  1  0  0  0  0
 17 18  1  0  0  0  0
 18 19  2  0  0  0  0
 19  5  1  0  0  0  0
 19 20  1  0  0  0  0
 20 21  2  0  0  0  0
 22  3  1  0  0  0  0
 23  3  1  0  0  0  0
 24  5  1  0  0  0  0
 25  5  1  0  0  0  0
M  END
>  <CHROM.1>
148.46795491,3.86095145,-6.82629681,-103.17259476,28.65446452,1.13773992
-2.10024066,0.14065608,0.73422101,1.21730875,-0.92642837

>  <Name>
1q8n_lig

>  <RI>
0

>  <Rbt.Current_Directory>
/home/itssahil/PROJECTS/Mol_Feturizer/New_Systems/rnas/1q8n

>  <Rbt.Executable>
rbdock ($Id: //depot/dev/client3/rdock/2013.1/src/exe/rbdock.cxx#4 $)

>  <Rbt.Library>
libRbt.so (2013.1, Build901 2013/11/27)

>  <Rbt.Parameter_File>
/export/apps/rDock/src/rDock_2013.1_src/data/scripts/dock_solv.prm

>  <Rbt.Receptor>
prm/blind_docking_20.prm

>  <SCORE>
-36.3595

>  <SCORE.INTER>
-40.9574

>  <SCORE.INTER.CONST>
1

>  <SCORE.INTER.POLAR>
0

>  <SCORE.INTER.ROT>
5

>  <SCORE.INTER.SOLV>
7.32346

>  <SCORE.INTER.VDW>
-36.6794

>  <SCORE.INTER.norm>
-1.6383

>  <SCORE.INTRA>
4.57988

>  <SCORE.INTRA.DIHEDRAL>
15.075

>  <SCORE.INTRA.DIHEDRAL.0>
2.1627

>  <SCORE.INTRA.POLAR>
0

>  <SCORE.INTRA.POLAR.0>
0

>  <SCORE.INTRA.REPUL>
0

>  <SCORE.INTRA.REPUL.0>
0

>  <SCORE.INTRA.SOLV>
0.059127

>  <SCORE.INTRA.SOLV.lig_0>
-5.95779

>  <SCORE.INTRA.VDW>
-2.98716

>  <SCORE.INTRA.VDW.0>
3.81702

>  <SCORE.INTRA.norm>
0.183195

>  <SCORE.RESTR>
0.0180113

>  <SCORE.RESTR.CAVITY>
0.0180113

>  <SCORE.RESTR.norm>
0.00072045

>  <SCORE.SYSTEM>
0

>  <SCORE.SYSTEM.CONST>
0

>  <SCORE.SYSTEM.DIHEDRAL>
0

>  <SCORE.SYSTEM.SOLV>
0

>  <SCORE.SYSTEM.norm>
0

>  <SCORE.heavy>
25

>  <SCORE.norm>
-1.45438

>  <RMSD>
4.295

$$$$
1q8n_lig
 OpenBabel11021811403D
libRbt.so/2013.1/901 2013/11/27
 25 27  0  0  0  0  0  0  0  0999 V2000
    0.8184   -1.6424    0.0318 C   0  0  0  0  0  0  0  0  0  0  0  0
    0.2701   -0.1380   -0.2870 C   0  0  0  0  0  0  0  0  0  0  0  0
    0.6016   -3.6144    5.6430 N   0  0  0  0  0  0  0  0  0  0  0  0
   -0.5217    0.1605   -1.3447 C   0  0  0  0  0  0  0  0  0  0  0  0
    3.0595   -4.9763   -4.4152 N   0  0  0  0  0  0  0  0  0  0  0  0
   -0.9930    1.5410   -1.6015 C   0  0  0  0  0  0  0  0  0  0  0  0
   -0.6320    2.5404   -0.7643 C   0  0  0  0  0  0  0  0  0  0  0  0
    0.2063    2.2428    0.3735 C   0  0  0  0  0  0  0  0  0  0  0  0
    0.6263    0.9944    0.5932 C   0  0  0  0  0  0  0  0  0  0  0  0
    0.7587   -2.1778    1.5713 C   0  0  0  0  0  0  0  0  0  0  0  0
    0.3815   -1.3652    2.5802 C   0  0  0  0  0  0  0  0  0  0  0  0
    0.3213   -1.8367    3.9915 C   0  0  0  0  0  0  0  0  0  0  0  0
    0.6483   -3.1205    4.2986 C   0  0  0  0  0  0  0  0  0  0  0  0
    1.0605   -4.0214    3.2057 C   0  0  0  0  0  0  0  0  0  0  0  0
    1.1110   -3.5800    1.9410 C   0  0  0  0  0  0  0  0  0  0  0  0
    1.4264   -2.6203   -1.1610 C   0  0  0  0  0  0  0  0  0  0  0  0
    1.7394   -2.0427   -2.5138 C   0  0  0  0  0  0  0  0  0  0  0  0
    2.2396   -2.7734   -3.5139 C   0  0  0  0  0  0  0  0  0  0  0  0
    2.5127   -4.2046   -3.3387 C   0  0  0  0  0  0  0  0  0  0  0  0
    2.2439   -4.7743   -2.1455 C   0  0  0  0  0  0  0  0  0  0  0  0
    1.6829   -3.9626   -1.0135 C   0  0  0  0  0  0  0  0  0  0  0  0
    1.4183   -4.7034    6.0855 C   0  0  0  0  0  0  0  0  0  0  0  0
   -0.2806   -3.0182    6.5977 C   0  0  0  0  0  0  0  0  0  0  0  0
    2.2261   -5.8779   -5.1575 C   0  0  0  0  0  0  0  0  0  0  0  0
    4.4524   -4.8660   -4.7855 C   0  0  0  0  0  0  0  0  0  0  0  0
  1  2  1  0  0  0  0
  1 10  1  0  0  0  0
  1 16  1  0  0  0  0
  2  4  2  0  0  0  0
  2  9  1  0  0  0  0
  4  6  1  0  0  0  0
  6  7  2  0  0  0  0
  7  8  1  0  0  0  0
  8  9  2  0  0  0  0
 10 11  2  0  0  0  0
 10 15  1  0  0  0  0
 11 12  1  0  0  0  0
 12 13  2  0  0  0  0
 13  3  1  0  0  0  0
 13 14  1  0  0  0  0
 14 15  2  0  0  0  0
 16 17  2  0  0  0  0
 16 21  1  0  0  0  0
 17 18  1  0  0  0  0
 18 19  2  0  0  0  0
 19  5  1  0  0  0  0
 19 20  1  0  0  0  0
 20 21  2  0  0  0  0
 22  3  1  0  0  0  0
 23  3  1  0  0  0  0
 24  5  1  0  0  0  0
 25  5  1  0  0  0  0
M  END
>  <CHROM.1>
-135.79031712,-5.91681212,12.24193621,-153.61760901,-104.54802386,1.12004248
-2.37941666,0.20897043,2.20800749,-1.16133150,2.00757223

>  <Name>
1q8n_lig

>  <RI>
0

>  <Rbt.Current_Directory>
/home/itssahil/PROJECTS/Mol_Feturizer/New_Systems/rnas/1q8n

>  <Rbt.Executable>
rbdock ($Id: //depot/dev/client3/rdock/2013.1/src/exe/rbdock.cxx#4 $)

>  <Rbt.Library>
libRbt.so (2013.1, Build901 2013/11/27)

>  <Rbt.Parameter_File>
/export/apps/rDock/src/rDock_2013.1_src/data/scripts/dock_solv.prm

>  <Rbt.Receptor>
prm/blind_docking_40.prm

>  <SCORE>
-37.1377

>  <SCORE.INTER>
-41.0363

>  <SCORE.INTER.CONST>
1

>  <SCORE.INTER.POLAR>
0

>  <SCORE.INTER.ROT>
5

>  <SCORE.INTER.SOLV>
7.97436

>  <SCORE.INTER.VDW>
-36.949

>  <SCORE.INTER.norm>
-1.64145

>  <SCORE.INTRA>
3.89851

>  <SCORE.INTRA.DIHEDRAL>
14.5162

>  <SCORE.INTRA.DIHEDRAL.0>
2.1627

>  <SCORE.INTRA.POLAR>
0

>  <SCORE.INTRA.POLAR.0>
0

>  <SCORE.INTRA.REPUL>
0

>  <SCORE.INTRA.REPUL.0>
0

>  <SCORE.INTRA.SOLV>
0.0420045

>  <SCORE.INTRA.SOLV.lig_0>
-5.95779

>  <SCORE.INTRA.VDW>
-3.38057

>  <SCORE.INTRA.VDW.0>
3.81702

>  <SCORE.INTRA.norm>
0.15594

>  <SCORE.RESTR>
0

>  <SCORE.RESTR.CAVITY>
0

>  <SCORE.RESTR.norm>
0

>  <SCORE.SYSTEM>
0

>  <SCORE.SYSTEM.CONST>
0

>  <SCORE.SYSTEM.DIHEDRAL>
0

>  <SCORE.SYSTEM.SOLV>
0

>  <SCORE.SYSTEM.norm>
0

>  <SCORE.heavy>
25

>  <SCORE.norm>
-1.48551

>  <RMSD>
4.613

$$$$
1q8n_lig
 OpenBabel11021811403D
libRbt.so/2013.1/901 2013/11/27
 25 27  0  0  0  0  0  0  0  0999 V2000
    0.8274   -1.5986    0.1566 C   0  0  0  0  0  0  0  0  0  0  0  0
    0.2703   -0.1097   -0.2151 C   0  0  0  0  0  0  0  0  0  0  0  0
    2.9341   -4.9892   -4.2579 N   0  0  0  0  0  0  0  0  0  0  0  0
   -0.4892    0.1537   -1.3054 C   0  0  0  0  0  0  0  0  0  0  0  0
    0.8684   -3.8842    5.6962 N   0  0  0  0  0  0  0  0  0  0  0  0
   -0.9699    1.5213   -1.6096 C   0  0  0  0  0  0  0  0  0  0  0  0
   -0.6506    2.5443   -0.7842 C   0  0  0  0  0  0  0  0  0  0  0  0
    0.1526    2.2844    0.3877 C   0  0  0  0  0  0  0  0  0  0  0  0
    0.5815    1.0473    0.6501 C   0  0  0  0  0  0  0  0  0  0  0  0
    1.4060   -2.5316   -1.0496 C   0  0  0  0  0  0  0  0  0  0  0  0
    1.6530   -3.8446   -0.8612 C   0  0  0  0  0  0  0  0  0  0  0  0
    2.1813   -4.7115   -1.9508 C   0  0  0  0  0  0  0  0  0  0  0  0
    2.4278   -4.1893   -3.1821 C   0  0  0  0  0  0  0  0  0  0  0  0
    2.1604   -2.7556   -3.4037 C   0  0  0  0  0  0  0  0  0  0  0  0
    1.6866   -1.9893   -2.4113 C   0  0  0  0  0  0  0  0  0  0  0  0
    0.8148   -2.1716    1.7123 C   0  0  0  0  0  0  0  0  0  0  0  0
    1.0574   -3.6327    1.9726 C   0  0  0  0  0  0  0  0  0  0  0  0
    1.0700   -4.1560    3.2016 C   0  0  0  0  0  0  0  0  0  0  0  0
    0.8420   -3.3140    4.3818 C   0  0  0  0  0  0  0  0  0  0  0  0
    0.6132   -1.9963    4.2034 C   0  0  0  0  0  0  0  0  0  0  0  0
    0.5982   -1.3967    2.8267 C   0  0  0  0  0  0  0  0  0  0  0  0
    4.3008   -4.9271   -4.6783 C   0  0  0  0  0  0  0  0  0  0  0  0
    2.0680   -5.8901   -4.9532 C   0  0  0  0  0  0  0  0  0  0  0  0
    0.0545   -3.3341    6.7418 C   0  0  0  0  0  0  0  0  0  0  0  0
    1.7035   -5.0235    6.0031 C   0  0  0  0  0  0  0  0  0  0  0  0
  1  2  1  0  0  0  0
  1 10  1  0  0  0  0
  1 16  1  0  0  0  0
  2  4  2  0  0  0  0
  2  9  1  0  0  0  0
  4  6  1  0  0  0  0
  6  7  2  0  0  0  0
  7  8  1  0  0  0  0
  8  9  2  0  0  0  0
 10 11  2  0  0  0  0
 10 15  1  0  0  0  0
 11 12  1  0  0  0  0
 12 13  2  0  0  0  0
 13  3  1  0  0  0  0
 13 14  1  0  0  0  0
 14 15  2  0  0  0  0
 16 17  2  0  0  0  0
 16 21  1  0  0  0  0
 17 18  1  0  0  0  0
 18 19  2  0  0  0  0
 19  5  1  0  0  0  0
 19 20  1  0  0  0  0
 20 21  2  0  0  0  0
 22  3  1  0  0  0  0
 23  3  1  0  0  0  0
 24  5  1  0  0  0  0
 25  5  1  0  0  0  0
M  END
>  <CHROM.1>
41.84196701,-167.81483233,167.01647814,-103.96092648,-149.07217949,1.15282214
-2.42608076,0.30472824,1.05575869,1.17411021,-1.18827420

>  <Name>
1q8n_lig

>  <RI>
0

>  <Rbt.Current_Directory>
/home/itssahil/PROJECTS/Mol_Feturizer/New_Systems/rnas/1q8n

>  <Rbt.Executable>
rbdock ($Id: //depot/dev/client3/rdock/2013.1/src/exe/rbdock.cxx#4 $)

>  <Rbt.Library>
libRbt.so (2013.1, Build901 2013/11/27)

>  <Rbt.Parameter_File>
/export/apps/rDock/src/rDock_2013.1_src/data/scripts/dock_solv.prm

>  <Rbt.Receptor>
prm/blind_docking_40.prm

>  <SCORE>
-37.9544

>  <SCORE.INTER>
-42.4422

>  <SCORE.INTER.CONST>
1

>  <SCORE.INTER.POLAR>
0

>  <SCORE.INTER.ROT>
5

>  <SCORE.INTER.SOLV>
8.09494

>  <SCORE.INTER.VDW>
-37.9265

>  <SCORE.INTER.norm>
-1.69769

>  <SCORE.INTRA>
4.48784

>  <SCORE.INTRA.DIHEDRAL>
15.4317

>  <SCORE.INTRA.DIHEDRAL.0>
2.1627

>  <SCORE.INTRA.POLAR>
0

>  <SCORE.INTRA.POLAR.0>
0

>  <SCORE.INTRA.REPUL>
0

>  <SCORE.INTRA.REPUL.0>
0

>  <SCORE.INTRA.SOLV>
0.0453829

>  <SCORE.INTRA.SOLV.lig_0>
-5.95779

>  <SCORE.INTRA.VDW>
-3.25069

>  <SCORE.INTRA.VDW.0>
3.81702

>  <SCORE.INTRA.norm>
0.179514

>  <SCORE.RESTR>
0

>  <SCORE.RESTR.CAVITY>
0

>  <SCORE.RESTR.norm>
0

>  <SCORE.SYSTEM>
0

>  <SCORE.SYSTEM.CONST>
0

>  <SCORE.SYSTEM.DIHEDRAL>
0

>  <SCORE.SYSTEM.SOLV>
0

>  <SCORE.SYSTEM.norm>
0

>  <SCORE.heavy>
25

>  <SCORE.norm>
-1.51818

>  <RMSD>
4.731

$$$$
1q8n_lig
 OpenBabel11021811413D
libRbt.so/2013.1/901 2013/11/27
 25 27  0  0  0  0  0  0  0  0999 V2000
    0.1501    0.6473    2.5130 C   0  0  0  0  0  0  0  0  0  0  0  0
   -0.8274    1.9187    2.2073 C   0  0  0  0  0  0  0  0  0  0  0  0
    2.2968   -2.4215   -2.1126 N   0  0  0  0  0  0  0  0  0  0  0  0
   -1.3270    2.7266    3.1730 C   0  0  0  0  0  0  0  0  0  0  0  0
    1.4365   -0.7768    8.1902 N   0  0  0  0  0  0  0  0  0  0  0  0
   -2.2161    3.8673    2.8531 C   0  0  0  0  0  0  0  0  0  0  0  0
   -2.5450    4.1218    1.5659 C   0  0  0  0  0  0  0  0  0  0  0  0
   -2.0178    3.2768    0.5200 C   0  0  0  0  0  0  0  0  0  0  0  0
   -1.2187    2.2503    0.8213 C   0  0  0  0  0  0  0  0  0  0  0  0
    0.7383   -0.1982    1.2483 C   0  0  0  0  0  0  0  0  0  0  0  0
    0.6955   -1.5466    1.2279 C   0  0  0  0  0  0  0  0  0  0  0  0
    1.2277   -2.3348    0.0819 C   0  0  0  0  0  0  0  0  0  0  0  0
    1.7755   -1.7006   -0.9891 C   0  0  0  0  0  0  0  0  0  0  0  0
    1.8273   -0.2264   -0.9820 C   0  0  0  0  0  0  0  0  0  0  0  0
    1.3453    0.4675    0.0586 C   0  0  0  0  0  0  0  0  0  0  0  0
    0.5486    0.2055    4.0605 C   0  0  0  0  0  0  0  0  0  0  0  0
    0.0909    1.0475    5.2194 C   0  0  0  0  0  0  0  0  0  0  0  0
    0.3695    0.7422    6.4897 C   0  0  0  0  0  0  0  0  0  0  0  0
    1.1527   -0.4532    6.8234 C   0  0  0  0  0  0  0  0  0  0  0  0
    1.5932   -1.2402    5.8199 C   0  0  0  0  0  0  0  0  0  0  0  0
    1.2849   -0.9079    4.3883 C   0  0  0  0  0  0  0  0  0  0  0  0
    2.8489   -1.7598   -3.2553 C   0  0  0  0  0  0  0  0  0  0  0  0
    2.2792   -3.8515   -2.1202 C   0  0  0  0  0  0  0  0  0  0  0  0
    0.9813    0.0793    9.2476 C   0  0  0  0  0  0  0  0  0  0  0  0
    2.1774   -1.9673    8.5410 C   0  0  0  0  0  0  0  0  0  0  0  0
  1  2  1  0  0  0  0
  1 10  1  0  0  0  0
  1 16  1  0  0  0  0
  2  4  2  0  0  0  0
  2  9  1  0  0  0  0
  4  6  1  0  0  0  0
  6  7  2  0  0  0  0
  7  8  1  0  0  0  0
  8  9  2  0  0  0  0
 10 11  2  0  0  0  0
 10 15  1  0  0  0  0
 11 12  1  0  0  0  0
 12 13  2  0  0  0  0
 13  3  1  0  0  0  0
 13 14  1  0  0  0  0
 14 15  2  0  0  0  0
 16 17  2  0  0  0  0
 16 21  1  0  0  0  0
 17 18  1  0  0  0  0
 18 19  2  0  0  0  0
 19  5  1  0  0  0  0
 19 20  1  0  0  0  0
 20 21  2  0  0  0  0
 22  3  1  0  0  0  0
 23  3  1  0  0  0  0
 24  5  1  0  0  0  0
 25  5  1  0  0  0  0
M  END
>  <CHROM.1>
-177.06697006,-132.70136928,-4.68688638,178.65003652,-1.28043685,0.62920972
0.02283058,2.63711545,1.71016325,-0.95164697,1.53761236

>  <Name>
1q8n_lig

>  <RI>
0

>  <Rbt.Current_Directory>
/home/itssahil/PROJECTS/Mol_Feturizer/New_Systems/rnas/1q8n

>  <Rbt.Executable>
rbdock ($Id: //depot/dev/client3/rdock/2013.1/src/exe/rbdock.cxx#4 $)

>  <Rbt.Library>
libRbt.so (2013.1, Build901 2013/11/27)

>  <Rbt.Parameter_File>
/export/apps/rDock/src/rDock_2013.1_src/data/scripts/dock_solv.prm

>  <Rbt.Receptor>
prm/pocket_docking_8.prm

>  <SCORE>
-38.9243

>  <SCORE.INTER>
-39.5017

>  <SCORE.INTER.CONST>
1

>  <SCORE.INTER.POLAR>
0

>  <SCORE.INTER.ROT>
5

>  <SCORE.INTER.SOLV>
7.63269

>  <SCORE.INTER.VDW>
-35.8121

>  <SCORE.INTER.norm>
-1.58007

>  <SCORE.INTRA>
0.577417

>  <SCORE.INTRA.DIHEDRAL>
0.0119637

>  <SCORE.INTRA.DIHEDRAL.0>
2.1627

>  <SCORE.INTRA.POLAR>
0

>  <SCORE.INTRA.POLAR.0>
0

>  <SCORE.INTRA.REPUL>
0

>  <SCORE.INTRA.REPUL.0>
0

>  <SCORE.INTRA.SOLV>
0.043464

>  <SCORE.INTRA.SOLV.lig_0>
-5.95779

>  <SCORE.INTRA.VDW>
0.549703

>  <SCORE.INTRA.VDW.0>
3.81702

>  <SCORE.INTRA.norm>
0.0230967

>  <SCORE.RESTR>
0

>  <SCORE.RESTR.CAVITY>
0

>  <SCORE.RESTR.norm>
0

>  <SCORE.SYSTEM>
0

>  <SCORE.SYSTEM.CONST>
0

>  <SCORE.SYSTEM.DIHEDRAL>
0

>  <SCORE.SYSTEM.SOLV>
0

>  <SCORE.SYSTEM.norm>
0

>  <SCORE.heavy>
25

>  <SCORE.norm>
-1.55697

>  <RMSD>
5.286

$$$$
1q8n_lig
 OpenBabel11021811413D
libRbt.so/2013.1/901 2013/11/27
 25 27  0  0  0  0  0  0  0  0999 V2000
   -0.0991    0.3284    2.5340 C   0  0  0  0  0  0  0  0  0  0  0  0
   -0.9039    1.7236    2.2673 C   0  0  0  0  0  0  0  0  0  0  0  0
    2.3861   -2.4139   -2.1270 N   0  0  0  0  0  0  0  0  0  0  0  0
   -1.2030    2.1895    1.0310 C   0  0  0  0  0  0  0  0  0  0  0  0
    0.2889   -2.2401    7.9345 N   0  0  0  0  0  0  0  0  0  0  0  0
   -1.9305    3.4643    0.8325 C   0  0  0  0  0  0  0  0  0  0  0  0
   -2.3140    4.1928    1.9059 C   0  0  0  0  0  0  0  0  0  0  0  0
   -2.0111    3.7109    3.2333 C   0  0  0  0  0  0  0  0  0  0  0  0
   -1.3530    2.5609    3.3993 C   0  0  0  0  0  0  0  0  0  0  0  0
    0.5820   -0.4277    1.2595 C   0  0  0  0  0  0  0  0  0  0  0  0
    0.6161   -1.7743    1.1816 C   0  0  0  0  0  0  0  0  0  0  0  0
    1.2338   -2.4815    0.0256 C   0  0  0  0  0  0  0  0  0  0  0  0
    1.7840   -1.7723   -0.9959 C   0  0  0  0  0  0  0  0  0  0  0  0
    1.7523   -0.2992   -0.9258 C   0  0  0  0  0  0  0  0  0  0  0  0
    1.1939    0.3214    0.1230 C   0  0  0  0  0  0  0  0  0  0  0  0
    0.0355   -0.3246    4.0519 C   0  0  0  0  0  0  0  0  0  0  0  0
   -0.6164   -1.6447    4.3582 C   0  0  0  0  0  0  0  0  0  0  0  0
   -0.5379   -2.2293    5.5567 C   0  0  0  0  0  0  0  0  0  0  0  0
    0.2022   -1.5988    6.6560 C   0  0  0  0  0  0  0  0  0  0  0  0
    0.8011   -0.4099    6.4360 C   0  0  0  0  0  0  0  0  0  0  0  0
    0.7210    0.2559    5.0924 C   0  0  0  0  0  0  0  0  0  0  0  0
    3.0195   -1.6753   -3.1766 C   0  0  0  0  0  0  0  0  0  0  0  0
    2.3701   -3.8397   -2.2375 C   0  0  0  0  0  0  0  0  0  0  0  0
   -0.2492   -3.5566    8.1233 C   0  0  0  0  0  0  0  0  0  0  0  0
    0.9204   -1.5883    9.0595 C   0  0  0  0  0  0  0  0  0  0  0  0
  1  2  1  0  0  0  0
  1 10  1  0  0  0  0
  1 16  1  0  0  0  0
  2  4  2  0  0  0  0
  2  9  1  0  0  0  0
  4  6  1  0  0  0  0
  6  7  2  0  0  0  0
  7  8  1  0  0  0  0
  8  9  2  0  0  0  0
 10 11  2  0  0  0  0
 10 15  1  0  0  0  0
 11 12  1  0  0  0  0
 12 13  2  0  0  0  0
 13  3  1  0  0  0  0
 13 14  1  0  0  0  0
 14 15  2  0  0  0  0
 16 17  2  0  0  0  0
 16 21  1  0  0  0  0
 17 18  1  0  0  0  0
 18 19  2  0  0  0  0
 19  5  1  0  0  0  0
 19 20  1  0  0  0  0
 20 21  2  0  0  0  0
 22  3  1  0  0  0  0
 23  3  1  0  0  0  0
 24  5  1  0  0  0  0
 25  5  1  0  0  0  0
M  END
>  <CHROM.1>
9.83155777,-144.12187360,114.69003402,-177.16585365,5.29829524,0.30328786
-0.44698807,2.63302830,1.17027179,1.06069336,-1.21237792

>  <Name>
1q8n_lig

>  <RI>
0

>  <Rbt.Current_Directory>
/home/itssahil/PROJECTS/Mol_Feturizer/New_Systems/rnas/1q8n

>  <Rbt.Executable>
rbdock ($Id: //depot/dev/client3/rdock/2013.1/src/exe/rbdock.cxx#4 $)

>  <Rbt.Library>
libRbt.so (2013.1, Build901 2013/11/27)

>  <Rbt.Parameter_File>
/export/apps/rDock/src/rDock_2013.1_src/data/scripts/dock_solv.prm

>  <Rbt.Receptor>
prm/pocket_docking_8.prm

>  <SCORE>
-41.2874

>  <SCORE.INTER>
-41.4011

>  <SCORE.INTER.CONST>
1

>  <SCORE.INTER.POLAR>
0

>  <SCORE.INTER.ROT>
5

>  <SCORE.INTER.SOLV>
7.63651

>  <SCORE.INTER.VDW>
-37.0796

>  <SCORE.INTER.norm>
-1.65604

>  <SCORE.INTRA>
0.113671

>  <SCORE.INTRA.DIHEDRAL>
0.138897

>  <SCORE.INTRA.DIHEDRAL.0>
2.1627

>  <SCORE.INTRA.POLAR>
0

>  <SCORE.INTRA.POLAR.0>
0

>  <SCORE.INTRA.REPUL>
0

>  <SCORE.INTRA.REPUL.0>
0

>  <SCORE.INTRA.SOLV>
0.008877

>  <SCORE.INTRA.SOLV.lig_0>
-5.95779

>  <SCORE.INTRA.VDW>
0.0397845

>  <SCORE.INTRA.VDW.0>
3.81702

>  <SCORE.INTRA.norm>
0.00454686

>  <SCORE.RESTR>
0

>  <SCORE.RESTR.CAVITY>
0

>  <SCORE.RESTR.norm>
0

>  <SCORE.SYSTEM>
0

>  <SCORE.SYSTEM.CONST>
0

>  <SCORE.SYSTEM.DIHEDRAL>
0

>  <SCORE.SYSTEM.SOLV>
0

>  <SCORE.SYSTEM.norm>
0

>  <SCORE.heavy>
25

>  <SCORE.norm>
-1.6515

>  <RMSD>
5.504

$$$$
1q8n_lig
 OpenBabel11021811403D
libRbt.so/2013.1/901 2013/11/27
 25 27  0  0  0  0  0  0  0  0999 V2000
    0.5121   -0.5158    0.0850 C   0  0  0  0  0  0  0  0  0  0  0  0
    1.0027   -2.0598   -0.1171 C   0  0  0  0  0  0  0  0  0  0  0  0
    0.1977    2.9953   -4.7103 N   0  0  0  0  0  0  0  0  0  0  0  0
    0.9338   -2.9994    0.8561 C   0  0  0  0  0  0  0  0  0  0  0  0
   -1.1087    1.8106    5.3645 N   0  0  0  0  0  0  0  0  0  0  0  0
    1.3956   -4.3890    0.6331 C   0  0  0  0  0  0  0  0  0  0  0  0
    1.9007   -4.7437   -0.5707 C   0  0  0  0  0  0  0  0  0  0  0  0
    1.9769   -3.7590   -1.6244 C   0  0  0  0  0  0  0  0  0  0  0  0
    1.5591   -2.5089   -1.4105 C   0  0  0  0  0  0  0  0  0  0  0  0
    0.4308    0.4485   -1.2280 C   0  0  0  0  0  0  0  0  0  0  0  0
    1.5280    1.0690   -1.7090 C   0  0  0  0  0  0  0  0  0  0  0  0
    1.4725    1.9528   -2.9064 C   0  0  0  0  0  0  0  0  0  0  0  0
    0.2938    2.1546   -3.5538 C   0  0  0  0  0  0  0  0  0  0  0  0
   -0.9141    1.4810   -3.0408 C   0  0  0  0  0  0  0  0  0  0  0  0
   -0.8467    0.6902   -1.9606 C   0  0  0  0  0  0  0  0  0  0  0  0
    0.1026    0.0813    1.5764 C   0  0  0  0  0  0  0  0  0  0  0  0
   -0.6562    1.3755    1.6808 C   0  0  0  0  0  0  0  0  0  0  0  0
   -1.0245    1.9056    2.8503 C   0  0  0  0  0  0  0  0  0  0  0  0
   -0.6992    1.2383    4.1163 C   0  0  0  0  0  0  0  0  0  0  0  0
   -0.0138    0.0767    4.0791 C   0  0  0  0  0  0  0  0  0  0  0  0
    0.4041   -0.5294    2.7704 C   0  0  0  0  0  0  0  0  0  0  0  0
    0.8793    4.2506   -4.8008 C   0  0  0  0  0  0  0  0  0  0  0  0
   -0.5980    2.5922   -5.8281 C   0  0  0  0  0  0  0  0  0  0  0  0
   -0.8601    1.1180    6.5962 C   0  0  0  0  0  0  0  0  0  0  0  0
   -1.7728    3.0933    5.4198 C   0  0  0  0  0  0  0  0  0  0  0  0
  1  2  1  0  0  0  0
  1 10  1  0  0  0  0
  1 16  1  0  0  0  0
  2  4  2  0  0  0  0
  2  9  1  0  0  0  0
  4  6  1  0  0  0  0
  6  7  2  0  0  0  0
  7  8  1  0  0  0  0
  8  9  2  0  0  0  0
 10 11  2  0  0  0  0
 10 15  1  0  0  0  0
 11 12  1  0  0  0  0
 12 13  2  0  0  0  0
 13  3  1  0  0  0  0
 13 14  1  0  0  0  0
 14 15  2  0  0  0  0
 16 17  2  0  0  0  0
 16 21  1  0  0  0  0
 17 18  1  0  0  0  0
 18 19  2  0  0  0  0
 19  5  1  0  0  0  0
 19 20  1  0  0  0  0
 20 21  2  0  0  0  0
 22  3  1  0  0  0  0
 23  3  1  0  0  0  0
 24  5  1  0  0  0  0
 25  5  1  0  0  0  0
M  END
>  <CHROM.1>
-170.53319013,-82.40071320,-164.94213977,-41.77707732,176.27749345,0.21962487
0.34513397,0.10913625,-1.96523887,1.22689162,-1.10017981

>  <Name>
1q8n_lig

>  <RI>
0

>  <Rbt.Current_Directory>
/home/itssahil/PROJECTS/Mol_Feturizer/New_Systems/rnas/1q8n

>  <Rbt.Executable>
rbdock ($Id: //depot/dev/client3/rdock/2013.1/src/exe/rbdock.cxx#4 $)

>  <Rbt.Library>
libRbt.so (2013.1, Build901 2013/11/27)

>  <Rbt.Parameter_File>
/export/apps/rDock/src/rDock_2013.1_src/data/scripts/dock_solv.prm

>  <Rbt.Receptor>
prm/blind_docking_20.prm

>  <SCORE>
-43.1699

>  <SCORE.INTER>
-44.3949

>  <SCORE.INTER.CONST>
1

>  <SCORE.INTER.POLAR>
0

>  <SCORE.INTER.ROT>
5

>  <SCORE.INTER.SOLV>
9.68503

>  <SCORE.INTER.VDW>
-39.7583

>  <SCORE.INTER.norm>
-1.7758

>  <SCORE.INTRA>
1.22504

>  <SCORE.INTRA.DIHEDRAL>
5.73249

>  <SCORE.INTRA.DIHEDRAL.0>
2.1627

>  <SCORE.INTRA.POLAR>
0

>  <SCORE.INTRA.POLAR.0>
0

>  <SCORE.INTRA.REPUL>
0

>  <SCORE.INTRA.REPUL.0>
0

>  <SCORE.INTRA.SOLV>
-0.00101098

>  <SCORE.INTRA.SOLV.lig_0>
-5.95779

>  <SCORE.INTRA.VDW>
-1.6407

>  <SCORE.INTRA.VDW.0>
3.81702

>  <SCORE.INTRA.norm>
0.0490017

>  <SCORE.RESTR>
0

>  <SCORE.RESTR.CAVITY>
0

>  <SCORE.RESTR.norm>
0

>  <SCORE.SYSTEM>
0

>  <SCORE.SYSTEM.CONST>
0

>  <SCORE.SYSTEM.DIHEDRAL>
0

>  <SCORE.SYSTEM.SOLV>
0

>  <SCORE.SYSTEM.norm>
0

>  <SCORE.heavy>
25

>  <SCORE.norm>
-1.72679

>  <RMSD>
5.627

$$$$
1q8n_lig
 OpenBabel11021811403D
libRbt.so/2013.1/901 2013/11/27
 25 27  0  0  0  0  0  0  0  0999 V2000
    0.6121   -0.2740    0.0379 C   0  0  0  0  0  0  0  0  0  0  0  0
    1.0829   -1.8221   -0.1797 C   0  0  0  0  0  0  0  0  0  0  0  0
    0.4425    3.3038   -4.7153 N   0  0  0  0  0  0  0  0  0  0  0  0
    1.6012   -2.2896   -1.3406 C   0  0  0  0  0  0  0  0  0  0  0  0
   -1.0687    1.9898    5.3259 N   0  0  0  0  0  0  0  0  0  0  0  0
    2.0109   -3.7042   -1.4983 C   0  0  0  0  0  0  0  0  0  0  0  0
    1.8709   -4.5633   -0.4628 C   0  0  0  0  0  0  0  0  0  0  0  0
    1.3267   -4.0840    0.7862 C   0  0  0  0  0  0  0  0  0  0  0  0
    0.9591   -2.8067    0.9154 C   0  0  0  0  0  0  0  0  0  0  0  0
    0.5663    0.7107   -1.2615 C   0  0  0  0  0  0  0  0  0  0  0  0
    0.9925    1.9886   -1.1859 C   0  0  0  0  0  0  0  0  0  0  0  0
    0.9581    2.9018   -2.3618 C   0  0  0  0  0  0  0  0  0  0  0  0
    0.4906    2.4582   -3.5592 C   0  0  0  0  0  0  0  0  0  0  0  0
    0.0232    1.0626   -3.6578 C   0  0  0  0  0  0  0  0  0  0  0  0
    0.0594    0.2546   -2.5890 C   0  0  0  0  0  0  0  0  0  0  0  0
    0.1876    0.3070    1.5315 C   0  0  0  0  0  0  0  0  0  0  0  0
   -0.6118    1.5762    1.6402 C   0  0  0  0  0  0  0  0  0  0  0  0
   -0.9938    2.0921    2.8117 C   0  0  0  0  0  0  0  0  0  0  0  0
   -0.6443    1.4331    4.0755 C   0  0  0  0  0  0  0  0  0  0  0  0
    0.0776    0.2940    4.0344 C   0  0  0  0  0  0  0  0  0  0  0  0
    0.5113   -0.2961    2.7235 C   0  0  0  0  0  0  0  0  0  0  0  0
    1.1291    4.5583   -4.7731 C   0  0  0  0  0  0  0  0  0  0  0  0
   -0.3081    2.9064   -5.8659 C   0  0  0  0  0  0  0  0  0  0  0  0
   -2.0004    3.0805    5.3552 C   0  0  0  0  0  0  0  0  0  0  0  0
   -0.5800    1.4699    6.5830 C   0  0  0  0  0  0  0  0  0  0  0  0
  1  2  1  0  0  0  0
  1 10  1  0  0  0  0
  1 16  1  0  0  0  0
  2  4  2  0  0  0  0
  2  9  1  0  0  0  0
  4  6  1  0  0  0  0
  6  7  2  0  0  0  0
  7  8  1  0  0  0  0
  8  9  2  0  0  0  0
 10 11  2  0  0  0  0
 10 15  1  0  0  0  0
 11 12  1  0  0  0  0
 12 13  2  0  0  0  0
 13  3  1  0  0  0  0
 13 14  1  0  0  0  0
 14 15  2  0  0  0  0
 16 17  2  0  0  0  0
 16 21  1  0  0  0  0
 17 18  1  0  0  0  0
 18 19  2  0  0  0  0
 19  5  1  0  0  0  0
 19 20  1  0  0  0  0
 20 21  2  0  0  0  0
 22  3  1  0  0  0  0
 23  3  1  0  0  0  0
 24  5  1  0  0  0  0
 25  5  1  0  0  0  0
M  END
>  <CHROM.1>
8.83530434,-139.04457766,-161.96192273,13.44983470,9.20082537,0.32478465
0.57400924,0.10125433,-1.11147349,-1.25354781,2.12933976

>  <Name>
1q8n_lig

>  <RI>
0

>  <Rbt.Current_Directory>
/home/itssahil/PROJECTS/Mol_Feturizer/New_Systems/rnas/1q8n

>  <Rbt.Executable>
rbdock ($Id: //depot/dev/client3/rdock/2013.1/src/exe/rbdock.cxx#4 $)

>  <Rbt.Library>
libRbt.so (2013.1, Build901 2013/11/27)

>  <Rbt.Parameter_File>
/export/apps/rDock/src/rDock_2013.1_src/data/scripts/dock_solv.prm

>  <Rbt.Receptor>
prm/pocket_docking_3.prm

>  <SCORE>
-44.0359

>  <SCORE.INTER>
-45.0283

>  <SCORE.INTER.CONST>
1

>  <SCORE.INTER.POLAR>
0

>  <SCORE.INTER.ROT>
5

>  <SCORE.INTER.SOLV>
10.0196

>  <SCORE.INTER.VDW>
-40.292

>  <SCORE.INTER.norm>
-1.80113

>  <SCORE.INTRA>
0.461772

>  <SCORE.INTRA.DIHEDRAL>
1.01893

>  <SCORE.INTRA.DIHEDRAL.0>
2.1627

>  <SCORE.INTRA.POLAR>
0

>  <SCORE.INTRA.POLAR.0>
0

>  <SCORE.INTRA.REPUL>
0

>  <SCORE.INTRA.REPUL.0>
0

>  <SCORE.INTRA.SOLV>
0.0408217

>  <SCORE.INTRA.SOLV.lig_0>
-5.95779

>  <SCORE.INTRA.VDW>
-0.0681057

>  <SCORE.INTRA.VDW.0>
3.81702

>  <SCORE.INTRA.norm>
0.0184709

>  <SCORE.RESTR>
0.530612

>  <SCORE.RESTR.CAVITY>
0.530612

>  <SCORE.RESTR.norm>
0.0212245

>  <SCORE.SYSTEM>
0

>  <SCORE.SYSTEM.CONST>
0

>  <SCORE.SYSTEM.DIHEDRAL>
0

>  <SCORE.SYSTEM.SOLV>
0

>  <SCORE.SYSTEM.norm>
0

>  <SCORE.heavy>
25

>  <SCORE.norm>
-1.76144

>  <RMSD>
5.657

$$$$
1q8n_lig
 OpenBabel11021811413D
libRbt.so/2013.1/901 2013/11/27
 25 27  0  0  0  0  0  0  0  0999 V2000
    1.4886   -2.3240    0.1912 C   0  0  0  0  0  0  0  0  0  0  0  0
    1.3178   -3.1318    1.5996 C   0  0  0  0  0  0  0  0  0  0  0  0
   -0.1227    3.4029    0.0253 N   0  0  0  0  0  0  0  0  0  0  0  0
    1.0127   -4.4495    1.6733 C   0  0  0  0  0  0  0  0  0  0  0  0
    3.5325   -5.1834   -4.6626 N   0  0  0  0  0  0  0  0  0  0  0  0
    0.8610   -5.1438    2.9729 C   0  0  0  0  0  0  0  0  0  0  0  0
    1.0303   -4.4560    4.1253 C   0  0  0  0  0  0  0  0  0  0  0  0
    1.3626   -3.0516    4.0694 C   0  0  0  0  0  0  0  0  0  0  0  0
    1.4949   -2.4365    2.8916 C   0  0  0  0  0  0  0  0  0  0  0  0
    1.0506   -0.7537    0.1417 C   0  0  0  0  0  0  0  0  0  0  0  0
    1.3810    0.0319   -0.9042 C   0  0  0  0  0  0  0  0  0  0  0  0
    0.9896    1.4675   -0.9663 C   0  0  0  0  0  0  0  0  0  0  0  0
    0.2755    2.0265    0.0471 C   0  0  0  0  0  0  0  0  0  0  0  0
   -0.0950    1.1793    1.1965 C   0  0  0  0  0  0  0  0  0  0  0  0
    0.2671   -0.1106    1.2371 C   0  0  0  0  0  0  0  0  0  0  0  0
    2.0882   -3.0587   -1.1687 C   0  0  0  0  0  0  0  0  0  0  0  0
    1.8941   -4.5368   -1.3670 C   0  0  0  0  0  0  0  0  0  0  0  0
    2.3435   -5.1872   -2.4437 C   0  0  0  0  0  0  0  0  0  0  0  0
    3.0643   -4.4774   -3.5069 C   0  0  0  0  0  0  0  0  0  0  0  0
    3.2709   -3.1506   -3.3755 C   0  0  0  0  0  0  0  0  0  0  0  0
    2.7690   -2.4085   -2.1703 C   0  0  0  0  0  0  0  0  0  0  0  0
   -1.0592    3.9421    0.9638 C   0  0  0  0  0  0  0  0  0  0  0  0
    0.4182    4.2923   -0.9553 C   0  0  0  0  0  0  0  0  0  0  0  0
    4.9265   -5.1756   -5.0018 C   0  0  0  0  0  0  0  0  0  0  0  0
    2.6237   -5.9224   -5.5096 C   0  0  0  0  0  0  0  0  0  0  0  0
  1  2  1  0  0  0  0
  1 10  1  0  0  0  0
  1 16  1  0  0  0  0
  2  4  2  0  0  0  0
  2  9  1  0  0  0  0
  4  6  1  0  0  0  0
  6  7  2  0  0  0  0
  7  8  1  0  0  0  0
  8  9  2  0  0  0  0
 10 11  2  0  0  0  0
 10 15  1  0  0  0  0
 11 12  1  0  0  0  0
 12 13  2  0  0  0  0
 13  3  1  0  0  0  0
 13 14  1  0  0  0  0
 14 15  2  0  0  0  0
 16 17  2  0  0  0  0
 16 21  1  0  0  0  0
 17 18  1  0  0  0  0
 18 19  2  0  0  0  0
 19  5  1  0  0  0  0
 19 20  1  0  0  0  0
 20 21  2  0  0  0  0
 22  3  1  0  0  0  0
 23  3  1  0  0  0  0
 24  5  1  0  0  0  0
 25  5  1  0  0  0  0
M  END
>  <CHROM.1>
147.03527604,168.09064299,28.64596965,169.10857337,-122.07759169,1.53288569
-1.90934090,-0.49842257,2.86178291,1.20286396,-0.73685031

>  <Name>
1q8n_lig

>  <RI>
0

>  <Rbt.Current_Directory>
/home/itssahil/PROJECTS/Mol_Feturizer/New_Systems/rnas/1q8n

>  <Rbt.Executable>
rbdock ($Id: //depot/dev/client3/rdock/2013.1/src/exe/rbdock.cxx#4 $)

>  <Rbt.Library>
libRbt.so (2013.1, Build901 2013/11/27)

>  <Rbt.Parameter_File>
/export/apps/rDock/src/rDock_2013.1_src/data/scripts/dock_solv.prm

>  <Rbt.Receptor>
prm/pocket_docking_7.prm

>  <SCORE>
-36.5044

>  <SCORE.INTER>
-39.1682

>  <SCORE.INTER.CONST>
1

>  <SCORE.INTER.POLAR>
0

>  <SCORE.INTER.ROT>
5

>  <SCORE.INTER.SOLV>
10.2574

>  <SCORE.INTER.VDW>
-36.4646

>  <SCORE.INTER.norm>
-1.56673

>  <SCORE.INTRA>
2.66382

>  <SCORE.INTRA.DIHEDRAL>
9.63994

>  <SCORE.INTRA.DIHEDRAL.0>
2.1627

>  <SCORE.INTRA.POLAR>
0

>  <SCORE.INTRA.POLAR.0>
0

>  <SCORE.INTRA.REPUL>
0

>  <SCORE.INTRA.REPUL.0>
0

>  <SCORE.INTRA.SOLV>
0.0465396

>  <SCORE.INTRA.SOLV.lig_0>
-5.95779

>  <SCORE.INTRA.VDW>
-2.17942

>  <SCORE.INTRA.VDW.0>
3.81702

>  <SCORE.INTRA.norm>
0.106553

>  <SCORE.RESTR>
0

>  <SCORE.RESTR.CAVITY>
0

>  <SCORE.RESTR.norm>
0

>  <SCORE.SYSTEM>
0

>  <SCORE.SYSTEM.CONST>
0

>  <SCORE.SYSTEM.DIHEDRAL>
0

>  <SCORE.SYSTEM.SOLV>
0

>  <SCORE.SYSTEM.norm>
0

>  <SCORE.heavy>
25

>  <SCORE.norm>
-1.46018

>  <RMSD>
5.683

$$$$
1q8n_lig
 OpenBabel11021811403D
libRbt.so/2013.1/901 2013/11/27
 25 27  0  0  0  0  0  0  0  0999 V2000
    0.6220   -0.3686    0.0658 C   0  0  0  0  0  0  0  0  0  0  0  0
    1.0904   -1.9130   -0.1809 C   0  0  0  0  0  0  0  0  0  0  0  0
    0.4903    3.3067   -4.6136 N   0  0  0  0  0  0  0  0  0  0  0  0
    1.5936   -2.3629   -1.3553 C   0  0  0  0  0  0  0  0  0  0  0  0
   -1.0911    1.7837    5.3899 N   0  0  0  0  0  0  0  0  0  0  0  0
    2.0017   -3.7748   -1.5394 C   0  0  0  0  0  0  0  0  0  0  0  0
    1.8753   -4.6493   -0.5151 C   0  0  0  0  0  0  0  0  0  0  0  0
    1.3473   -4.1889    0.7479 C   0  0  0  0  0  0  0  0  0  0  0  0
    0.9811   -2.9139    0.9009 C   0  0  0  0  0  0  0  0  0  0  0  0
    0.5861    0.6429   -1.2132 C   0  0  0  0  0  0  0  0  0  0  0  0
    0.9110    1.9460   -1.0837 C   0  0  0  0  0  0  0  0  0  0  0  0
    0.8838    2.8837   -2.2403 C   0  0  0  0  0  0  0  0  0  0  0  0
    0.5273    2.4379   -3.4745 C   0  0  0  0  0  0  0  0  0  0  0  0
    0.1715    1.0150   -3.6321 C   0  0  0  0  0  0  0  0  0  0  0  0
    0.1995    0.1850   -2.5800 C   0  0  0  0  0  0  0  0  0  0  0  0
    0.1902    0.1826    1.5687 C   0  0  0  0  0  0  0  0  0  0  0  0
   -0.6494    1.4237    1.6968 C   0  0  0  0  0  0  0  0  0  0  0  0
   -1.0390    1.9145    2.8765 C   0  0  0  0  0  0  0  0  0  0  0  0
   -0.6584    1.2543    4.1306 C   0  0  0  0  0  0  0  0  0  0  0  0
    0.1001    0.1400    4.0721 C   0  0  0  0  0  0  0  0  0  0  0  0
    0.5428   -0.4219    2.7517 C   0  0  0  0  0  0  0  0  0  0  0  0
    1.1916    4.5540   -4.6459 C   0  0  0  0  0  0  0  0  0  0  0  0
   -0.2637    2.9411   -5.7724 C   0  0  0  0  0  0  0  0  0  0  0  0
   -0.7695    1.1035    6.6116 C   0  0  0  0  0  0  0  0  0  0  0  0
   -1.8520    3.0103    5.4666 C   0  0  0  0  0  0  0  0  0  0  0  0
  1  2  1  0  0  0  0
  1 10  1  0  0  0  0
  1 16  1  0  0  0  0
  2  4  2  0  0  0  0
  2  9  1  0  0  0  0
  4  6  1  0  0  0  0
  6  7  2  0  0  0  0
  7  8  1  0  0  0  0
  8  9  2  0  0  0  0
 10 11  2  0  0  0  0
 10 15  1  0  0  0  0
 11 12  1  0  0  0  0
 12 13  2  0  0  0  0
 13  3  1  0  0  0  0
 13 14  1  0  0  0  0
 14 15  2  0  0  0  0
 16 17  2  0  0  0  0
 16 21  1  0  0  0  0
 17 18  1  0  0  0  0
 18 19  2  0  0  0  0
 19  5  1  0  0  0  0
 19 20  1  0  0  0  0
 20 21  2  0  0  0  0
 22  3  1  0  0  0  0
 23  3  1  0  0  0  0
 24  5  1  0  0  0  0
 25  5  1  0  0  0  0
M  END
>  <CHROM.1>
7.70155220,-144.53559521,-159.72700294,19.53371382,177.15194698,0.33644648
0.47721463,0.14514625,-1.08795262,-1.25181056,2.17214920

>  <Name>
1q8n_lig

>  <RI>
0

>  <Rbt.Current_Directory>
/home/itssahil/PROJECTS/Mol_Feturizer/New_Systems/rnas/1q8n

>  <Rbt.Executable>
rbdock ($Id: //depot/dev/client3/rdock/2013.1/src/exe/rbdock.cxx#4 $)

>  <Rbt.Library>
libRbt.so (2013.1, Build901 2013/11/27)

>  <Rbt.Parameter_File>
/export/apps/rDock/src/rDock_2013.1_src/data/scripts/dock_solv.prm

>  <Rbt.Receptor>
prm/blind_docking_100.prm

>  <SCORE>
-45.8008

>  <SCORE.INTER>
-46.5441

>  <SCORE.INTER.CONST>
1

>  <SCORE.INTER.POLAR>
0

>  <SCORE.INTER.ROT>
5

>  <SCORE.INTER.SOLV>
9.67989

>  <SCORE.INTER.VDW>
-41.1894

>  <SCORE.INTER.norm>
-1.86177

>  <SCORE.INTRA>
0.731833

>  <SCORE.INTRA.DIHEDRAL>
1.46302

>  <SCORE.INTRA.DIHEDRAL.0>
2.1627

>  <SCORE.INTRA.POLAR>
0

>  <SCORE.INTRA.POLAR.0>
0

>  <SCORE.INTRA.REPUL>
0

>  <SCORE.INTRA.REPUL.0>
0

>  <SCORE.INTRA.SOLV>
0.0462029

>  <SCORE.INTRA.SOLV.lig_0>
-5.95779

>  <SCORE.INTRA.VDW>
-0.022779

>  <SCORE.INTRA.VDW.0>
3.81702

>  <SCORE.INTRA.norm>
0.0292733

>  <SCORE.RESTR>
0.0115532

>  <SCORE.RESTR.CAVITY>
0.0115532

>  <SCORE.RESTR.norm>
0.000462129

>  <SCORE.SYSTEM>
0

>  <SCORE.SYSTEM.CONST>
0

>  <SCORE.SYSTEM.DIHEDRAL>
0

>  <SCORE.SYSTEM.SOLV>
0

>  <SCORE.SYSTEM.norm>
0

>  <SCORE.heavy>
25

>  <SCORE.norm>
-1.83203

>  <RMSD>
5.684

$$$$
1q8n_lig
 OpenBabel11021811413D
libRbt.so/2013.1/901 2013/11/27
 25 27  0  0  0  0  0  0  0  0999 V2000
    0.6340   -0.4375    0.1896 C   0  0  0  0  0  0  0  0  0  0  0  0
    1.0861   -1.9867   -0.0572 C   0  0  0  0  0  0  0  0  0  0  0  0
    0.4474    3.2148   -4.5059 N   0  0  0  0  0  0  0  0  0  0  0  0
    0.9895   -2.9531    0.8871 C   0  0  0  0  0  0  0  0  0  0  0  0
   -0.9703    1.7528    5.5321 N   0  0  0  0  0  0  0  0  0  0  0  0
    1.4167   -4.3467    0.6239 C   0  0  0  0  0  0  0  0  0  0  0  0
    1.9174   -4.6779   -0.5884 C   0  0  0  0  0  0  0  0  0  0  0  0
    2.0227   -3.6643   -1.6119 C   0  0  0  0  0  0  0  0  0  0  0  0
    1.6360   -2.4109   -1.3617 C   0  0  0  0  0  0  0  0  0  0  0  0
    0.5832    0.5677   -1.0938 C   0  0  0  0  0  0  0  0  0  0  0  0
    0.9344    1.8654   -0.9802 C   0  0  0  0  0  0  0  0  0  0  0  0
    0.8942    2.7974   -2.1410 C   0  0  0  0  0  0  0  0  0  0  0  0
    0.4982    2.3515   -3.3632 C   0  0  0  0  0  0  0  0  0  0  0  0
    0.1133    0.9344   -3.5034 C   0  0  0  0  0  0  0  0  0  0  0  0
    0.1536    0.1096   -2.4476 C   0  0  0  0  0  0  0  0  0  0  0  0
    0.2333    0.1247    1.6970 C   0  0  0  0  0  0  0  0  0  0  0  0
   -0.6099    1.3625    1.8332 C   0  0  0  0  0  0  0  0  0  0  0  0
   -0.9756    1.8617    3.0170 C   0  0  0  0  0  0  0  0  0  0  0  0
   -0.5632    1.2146    4.2680 C   0  0  0  0  0  0  0  0  0  0  0  0
    0.1998    0.1037    4.2020 C   0  0  0  0  0  0  0  0  0  0  0  0
    0.6157   -0.4675    2.8770 C   0  0  0  0  0  0  0  0  0  0  0  0
   -0.2829    2.8741   -5.6887 C   0  0  0  0  0  0  0  0  0  0  0  0
    1.1392    4.4664   -4.4926 C   0  0  0  0  0  0  0  0  0  0  0  0
   -0.6276    1.0789    6.7514 C   0  0  0  0  0  0  0  0  0  0  0  0
   -1.7260    2.9822    5.6158 C   0  0  0  0  0  0  0  0  0  0  0  0
  1  2  1  0  0  0  0
  1 10  1  0  0  0  0
  1 16  1  0  0  0  0
  2  4  2  0  0  0  0
  2  9  1  0  0  0  0
  4  6  1  0  0  0  0
  6  7  2  0  0  0  0
  7  8  1  0  0  0  0
  8  9  2  0  0  0  0
 10 11  2  0  0  0  0
 10 15  1  0  0  0  0
 11 12  1  0  0  0  0
 12 13  2  0  0  0  0
 13  3  1  0  0  0  0
 13 14  1  0  0  0  0
 14 15  2  0  0  0  0
 16 17  2  0  0  0  0
 16 21  1  0  0  0  0
 17 18  1  0  0  0  0
 18 19  2  0  0  0  0
 19  5  1  0  0  0  0
 19 20  1  0  0  0  0
 20 21  2  0  0  0  0
 22  3  1  0  0  0  0
 23  3  1  0  0  0  0
 24  5  1  0  0  0  0
 25  5  1  0  0  0  0
M  END
>  <CHROM.1>
-170.56605082,-143.79793314,-158.90414099,-163.20156855,176.60882255,0.36815964
0.42092214,0.23488651,-2.04154148,1.26302887,-1.01052357

>  <Name>
1q8n_lig

>  <RI>
0

>  <Rbt.Current_Directory>
/home/itssahil/PROJECTS/Mol_Feturizer/New_Systems/rnas/1q8n

>  <Rbt.Executable>
rbdock ($Id: //depot/dev/client3/rdock/2013.1/src/exe/rbdock.cxx#4 $)

>  <Rbt.Library>
libRbt.so (2013.1, Build901 2013/11/27)

>  <Rbt.Parameter_File>
/export/apps/rDock/src/rDock_2013.1_src/data/scripts/dock_solv.prm

>  <Rbt.Receptor>
prm/pocket_docking_5.prm

>  <SCORE>
-45.9248

>  <SCORE.INTER>
-46.5574

>  <SCORE.INTER.CONST>
1

>  <SCORE.INTER.POLAR>
0

>  <SCORE.INTER.ROT>
5

>  <SCORE.INTER.SOLV>
9.57009

>  <SCORE.INTER.VDW>
-41.1616

>  <SCORE.INTER.norm>
-1.8623

>  <SCORE.INTRA>
0.632655

>  <SCORE.INTRA.DIHEDRAL>
1.11436

>  <SCORE.INTRA.DIHEDRAL.0>
2.1627

>  <SCORE.INTRA.POLAR>
0

>  <SCORE.INTRA.POLAR.0>
0

>  <SCORE.INTRA.REPUL>
0

>  <SCORE.INTRA.REPUL.0>
0

>  <SCORE.INTRA.SOLV>
0.0441202

>  <SCORE.INTRA.SOLV.lig_0>
-5.95779

>  <SCORE.INTRA.VDW>
0.0534174

>  <SCORE.INTRA.VDW.0>
3.81702

>  <SCORE.INTRA.norm>
0.0253062

>  <SCORE.RESTR>
0

>  <SCORE.RESTR.CAVITY>
0

>  <SCORE.RESTR.norm>
0

>  <SCORE.SYSTEM>
0

>  <SCORE.SYSTEM.CONST>
0

>  <SCORE.SYSTEM.DIHEDRAL>
0

>  <SCORE.SYSTEM.SOLV>
0

>  <SCORE.SYSTEM.norm>
0

>  <SCORE.heavy>
25

>  <SCORE.norm>
-1.83699

>  <RMSD>
5.691

$$$$
1q8n_lig
 OpenBabel11021811403D
libRbt.so/2013.1/901 2013/11/27
 25 27  0  0  0  0  0  0  0  0999 V2000
    1.5531   -2.3389    0.1631 C   0  0  0  0  0  0  0  0  0  0  0  0
    1.4066   -3.1519    1.5713 C   0  0  0  0  0  0  0  0  0  0  0  0
   -0.1349    3.3667    0.0259 N   0  0  0  0  0  0  0  0  0  0  0  0
    1.6885   -2.6098    2.7802 C   0  0  0  0  0  0  0  0  0  0  0  0
    3.5764   -5.1563   -4.7237 N   0  0  0  0  0  0  0  0  0  0  0  0
    1.5477   -3.3845    4.0348 C   0  0  0  0  0  0  0  0  0  0  0  0
    1.1257   -4.6689    3.9869 C   0  0  0  0  0  0  0  0  0  0  0  0
    0.8132   -5.2644    2.7088 C   0  0  0  0  0  0  0  0  0  0  0  0
    0.9460   -4.5561    1.5846 C   0  0  0  0  0  0  0  0  0  0  0  0
    1.0941   -0.7744    0.1216 C   0  0  0  0  0  0  0  0  0  0  0  0
    1.4259    0.0246   -0.9138 C   0  0  0  0  0  0  0  0  0  0  0  0
    1.0156    1.4551   -0.9685 C   0  0  0  0  0  0  0  0  0  0  0  0
    0.2819    1.9957    0.0409 C   0  0  0  0  0  0  0  0  0  0  0  0
   -0.0904    1.1337    1.1787 C   0  0  0  0  0  0  0  0  0  0  0  0
    0.2889   -0.1514    1.2128 C   0  0  0  0  0  0  0  0  0  0  0  0
    2.1489   -3.0627   -1.2043 C   0  0  0  0  0  0  0  0  0  0  0  0
    1.9125   -4.5296   -1.4370 C   0  0  0  0  0  0  0  0  0  0  0  0
    2.3569   -5.1705   -2.5215 C   0  0  0  0  0  0  0  0  0  0  0  0
    3.1139   -4.4609   -3.5594 C   0  0  0  0  0  0  0  0  0  0  0  0
    3.3591   -3.1441   -3.3965 C   0  0  0  0  0  0  0  0  0  0  0  0
    2.8632   -2.4127   -2.1824 C   0  0  0  0  0  0  0  0  0  0  0  0
   -1.0721    3.8905    0.9723 C   0  0  0  0  0  0  0  0  0  0  0  0
    0.3872    4.2661   -0.9558 C   0  0  0  0  0  0  0  0  0  0  0  0
    4.9647   -5.1237   -5.0842 C   0  0  0  0  0  0  0  0  0  0  0  0
    2.6676   -5.9091   -5.5585 C   0  0  0  0  0  0  0  0  0  0  0  0
  1  2  1  0  0  0  0
  1 10  1  0  0  0  0
  1 16  1  0  0  0  0
  2  4  2  0  0  0  0
  2  9  1  0  0  0  0
  4  6  1  0  0  0  0
  6  7  2  0  0  0  0
  7  8  1  0  0  0  0
  8  9  2  0  0  0  0
 10 11  2  0  0  0  0
 10 15  1  0  0  0  0
 11 12  1  0  0  0  0
 12 13  2  0  0  0  0
 13  3  1  0  0  0  0
 13 14  1  0  0  0  0
 14 15  2  0  0  0  0
 16 17  2  0  0  0  0
 16 21  1  0  0  0  0
 17 18  1  0  0  0  0
 18 19  2  0  0  0  0
 19  5  1  0  0  0  0
 19 20  1  0  0  0  0
 20 21  2  0  0  0  0
 22  3  1  0  0  0  0
 23  3  1  0  0  0  0
 24  5  1  0  0  0  0
 25  5  1  0  0  0  0
M  END
>  <CHROM.1>
-39.75429797,166.80203667,31.69735263,170.22684605,-125.47117459,1.57399579
-1.95346011,-0.54724097,2.84884418,1.19797171,-0.73381307

>  <Name>
1q8n_lig

>  <RI>
0

>  <Rbt.Current_Directory>
/home/itssahil/PROJECTS/Mol_Feturizer/New_Systems/rnas/1q8n

>  <Rbt.Executable>
rbdock ($Id: //depot/dev/client3/rdock/2013.1/src/exe/rbdock.cxx#4 $)

>  <Rbt.Library>
libRbt.so (2013.1, Build901 2013/11/27)

>  <Rbt.Parameter_File>
/export/apps/rDock/src/rDock_2013.1_src/data/scripts/dock_solv.prm

>  <Rbt.Receptor>
prm/blind_docking_100.prm

>  <SCORE>
-36.7514

>  <SCORE.INTER>
-39.0382

>  <SCORE.INTER.CONST>
1

>  <SCORE.INTER.POLAR>
0

>  <SCORE.INTER.ROT>
5

>  <SCORE.INTER.SOLV>
10.5095

>  <SCORE.INTER.VDW>
-36.462

>  <SCORE.INTER.norm>
-1.56153

>  <SCORE.INTRA>
2.28681

>  <SCORE.INTRA.DIHEDRAL>
8.85156

>  <SCORE.INTRA.DIHEDRAL.0>
2.1627

>  <SCORE.INTRA.POLAR>
0

>  <SCORE.INTRA.POLAR.0>
0

>  <SCORE.INTRA.REPUL>
0

>  <SCORE.INTRA.REPUL.0>
0

>  <SCORE.INTRA.SOLV>
0.0371116

>  <SCORE.INTRA.SOLV.lig_0>
-5.95779

>  <SCORE.INTRA.VDW>
-2.15752

>  <SCORE.INTRA.VDW.0>
3.81702

>  <SCORE.INTRA.norm>
0.0914726

>  <SCORE.RESTR>
0

>  <SCORE.RESTR.CAVITY>
0

>  <SCORE.RESTR.norm>
0

>  <SCORE.SYSTEM>
0

>  <SCORE.SYSTEM.CONST>
0

>  <SCORE.SYSTEM.DIHEDRAL>
0

>  <SCORE.SYSTEM.SOLV>
0

>  <SCORE.SYSTEM.norm>
0

>  <SCORE.heavy>
25

>  <SCORE.norm>
-1.47005

>  <RMSD>
5.704

$$$$
1q8n_lig
 OpenBabel11021811403D
libRbt.so/2013.1/901 2013/11/27
 25 27  0  0  0  0  0  0  0  0999 V2000
    0.4283   -0.4540    0.0578 C   0  0  0  0  0  0  0  0  0  0  0  0
    0.9329   -2.0043   -0.0286 C   0  0  0  0  0  0  0  0  0  0  0  0
   -0.9114    1.7667    5.4146 N   0  0  0  0  0  0  0  0  0  0  0  0
    1.5093   -2.5425   -1.1299 C   0  0  0  0  0  0  0  0  0  0  0  0
    0.1534    2.9822   -4.8442 N   0  0  0  0  0  0  0  0  0  0  0  0
    1.9481   -3.9566   -1.1689 C   0  0  0  0  0  0  0  0  0  0  0  0
    1.7761   -4.7432   -0.0819 C   0  0  0  0  0  0  0  0  0  0  0  0
    1.1696   -4.1876    1.1053 C   0  0  0  0  0  0  0  0  0  0  0  0
    0.7764   -2.9116    1.1274 C   0  0  0  0  0  0  0  0  0  0  0  0
    0.0598    0.1593    1.5235 C   0  0  0  0  0  0  0  0  0  0  0  0
   -0.6538    1.2977    1.6460 C   0  0  0  0  0  0  0  0  0  0  0  0
   -0.9993    1.8721    2.9759 C   0  0  0  0  0  0  0  0  0  0  0  0
   -0.5981    1.2485    4.1158 C   0  0  0  0  0  0  0  0  0  0  0  0
    0.1810    0.0015    3.9977 C   0  0  0  0  0  0  0  0  0  0  0  0
    0.4849   -0.5008    2.7927 C   0  0  0  0  0  0  0  0  0  0  0  0
    0.2843    0.4932   -1.2952 C   0  0  0  0  0  0  0  0  0  0  0  0
    1.4981    1.1775   -1.8611 C   0  0  0  0  0  0  0  0  0  0  0  0
    1.4520    1.9456   -2.9530 C   0  0  0  0  0  0  0  0  0  0  0  0
    0.1891    2.1649   -3.6677 C   0  0  0  0  0  0  0  0  0  0  0  0
   -0.9316    1.5785   -3.1980 C   0  0  0  0  0  0  0  0  0  0  0  0
   -0.8917    0.7117   -1.9724 C   0  0  0  0  0  0  0  0  0  0  0  0
   -0.4700    1.1298    6.6180 C   0  0  0  0  0  0  0  0  0  0  0  0
   -1.6889    2.9599    5.5442 C   0  0  0  0  0  0  0  0  0  0  0  0
   -0.5998    2.5674   -5.9927 C   0  0  0  0  0  0  0  0  0  0  0  0
    0.8635    4.2397   -4.9060 C   0  0  0  0  0  0  0  0  0  0  0  0
  1  2  1  0  0  0  0
  1 10  1  0  0  0  0
  1 16  1  0  0  0  0
  2  4  2  0  0  0  0
  2  9  1  0  0  0  0
  4  6  1  0  0  0  0
  6  7  2  0  0  0  0
  7  8  1  0  0  0  0
  8  9  2  0  0  0  0
 10 11  2  0  0  0  0
 10 15  1  0  0  0  0
 11 12  1  0  0  0  0
 12 13  2  0  0  0  0
 13  3  1  0  0  0  0
 13 14  1  0  0  0  0
 14 15  2  0  0  0  0
 16 17  2  0  0  0  0
 16 21  1  0  0  0  0
 17 18  1  0  0  0  0
 18 19  2  0  0  0  0
 19  5  1  0  0  0  0
 19 20  1  0  0  0  0
 20 21  2  0  0  0  0
 22  3  1  0  0  0  0
 23  3  1  0  0  0  0
 24  5  1  0  0  0  0
 25  5  1  0  0  0  0
M  END
>  <CHROM.1>
-166.67609331,-163.98886141,-82.30656336,-178.74479823,136.80487623,0.21840975
0.34997399,0.15789468,-1.84314432,1.24725100,-1.14867008

>  <Name>
1q8n_lig

>  <RI>
0

>  <Rbt.Current_Directory>
/home/itssahil/PROJECTS/Mol_Feturizer/New_Systems/rnas/1q8n

>  <Rbt.Executable>
rbdock ($Id: //depot/dev/client3/rdock/2013.1/src/exe/rbdock.cxx#4 $)

>  <Rbt.Library>
libRbt.so (2013.1, Build901 2013/11/27)

>  <Rbt.Parameter_File>
/export/apps/rDock/src/rDock_2013.1_src/data/scripts/dock_solv.prm

>  <Rbt.Receptor>
prm/blind_docking_80.prm

>  <SCORE>
-42.485

>  <SCORE.INTER>
-44.1654

>  <SCORE.INTER.CONST>
1

>  <SCORE.INTER.POLAR>
0

>  <SCORE.INTER.ROT>
5

>  <SCORE.INTER.SOLV>
9.73137

>  <SCORE.INTER.VDW>
-39.6207

>  <SCORE.INTER.norm>
-1.76662

>  <SCORE.INTRA>
1.66959

>  <SCORE.INTRA.DIHEDRAL>
6.00189

>  <SCORE.INTRA.DIHEDRAL.0>
2.1627

>  <SCORE.INTRA.POLAR>
0

>  <SCORE.INTRA.POLAR.0>
0

>  <SCORE.INTRA.REPUL>
0

>  <SCORE.INTRA.REPUL.0>
0

>  <SCORE.INTRA.SOLV>
0.0206849

>  <SCORE.INTRA.SOLV.lig_0>
-5.95779

>  <SCORE.INTRA.VDW>
-1.3417

>  <SCORE.INTRA.VDW.0>
3.81702

>  <SCORE.INTRA.norm>
0.0667835

>  <SCORE.RESTR>
0.0108669

>  <SCORE.RESTR.CAVITY>
0.0108669

>  <SCORE.RESTR.norm>
0.000434674

>  <SCORE.SYSTEM>
0

>  <SCORE.SYSTEM.CONST>
0

>  <SCORE.SYSTEM.DIHEDRAL>
0

>  <SCORE.SYSTEM.SOLV>
0

>  <SCORE.SYSTEM.norm>
0

>  <SCORE.heavy>
25

>  <SCORE.norm>
-1.6994

>  <RMSD>
5.705

$$$$
1q8n_lig
 OpenBabel11021811413D
libRbt.so/2013.1/901 2013/11/27
 25 27  0  0  0  0  0  0  0  0999 V2000
    1.5638   -2.3655    0.0985 C   0  0  0  0  0  0  0  0  0  0  0  0
    1.4520   -3.1949    1.5003 C   0  0  0  0  0  0  0  0  0  0  0  0
    3.6003   -5.1981   -4.7234 N   0  0  0  0  0  0  0  0  0  0  0  0
    1.8408   -2.6950    2.6977 C   0  0  0  0  0  0  0  0  0  0  0  0
   -0.0735    3.3974   -0.0482 N   0  0  0  0  0  0  0  0  0  0  0  0
    1.7276   -3.4836    3.9464 C   0  0  0  0  0  0  0  0  0  0  0  0
    1.2227   -4.7379    3.9049 C   0  0  0  0  0  0  0  0  0  0  0  0
    0.7959   -5.2878    2.6394 C   0  0  0  0  0  0  0  0  0  0  0  0
    0.9048   -4.5676    1.5203 C   0  0  0  0  0  0  0  0  0  0  0  0
    2.1212   -3.1465   -1.2204 C   0  0  0  0  0  0  0  0  0  0  0  0
    1.9370   -4.4738   -1.3771 C   0  0  0  0  0  0  0  0  0  0  0  0
    2.4389   -5.2033   -2.5745 C   0  0  0  0  0  0  0  0  0  0  0  0
    3.1032   -4.5343   -3.5547 C   0  0  0  0  0  0  0  0  0  0  0  0
    3.3103   -3.0822   -3.3983 C   0  0  0  0  0  0  0  0  0  0  0  0
    2.8535   -2.4416   -2.3132 C   0  0  0  0  0  0  0  0  0  0  0  0
    1.1296   -0.7689   -0.0075 C   0  0  0  0  0  0  0  0  0  0  0  0
    0.3717   -0.1241    1.1201 C   0  0  0  0  0  0  0  0  0  0  0  0
    0.0008    1.1591    1.1014 C   0  0  0  0  0  0  0  0  0  0  0  0
    0.3200    2.0195   -0.0437 C   0  0  0  0  0  0  0  0  0  0  0  0
    0.9937    1.4887   -1.0853 C   0  0  0  0  0  0  0  0  0  0  0  0
    1.4172    0.0480   -1.0748 C   0  0  0  0  0  0  0  0  0  0  0  0
    2.7424   -5.9117   -5.6196 C   0  0  0  0  0  0  0  0  0  0  0  0
    4.9965   -5.1626   -5.0311 C   0  0  0  0  0  0  0  0  0  0  0  0
   -1.0126    3.8866    0.9198 C   0  0  0  0  0  0  0  0  0  0  0  0
    0.4637    4.3279   -1.0153 C   0  0  0  0  0  0  0  0  0  0  0  0
  1  2  1  0  0  0  0
  1 10  1  0  0  0  0
  1 16  1  0  0  0  0
  2  4  2  0  0  0  0
  2  9  1  0  0  0  0
  4  6  1  0  0  0  0
  6  7  2  0  0  0  0
  7  8  1  0  0  0  0
  8  9  2  0  0  0  0
 10 11  2  0  0  0  0
 10 15  1  0  0  0  0
 11 12  1  0  0  0  0
 12 13  2  0  0  0  0
 13  3  1  0  0  0  0
 13 14  1  0  0  0  0
 14 15  2  0  0  0  0
 16 17  2  0  0  0  0
 16 21  1  0  0  0  0
 17 18  1  0  0  0  0
 18 19  2  0  0  0  0
 19  5  1  0  0  0  0
 19 20  1  0  0  0  0
 20 21  2  0  0  0  0
 22  3  1  0  0  0  0
 23  3  1  0  0  0  0
 24  5  1  0  0  0  0
 25  5  1  0  0  0  0
M  END
>  <CHROM.1>
136.40305375,29.47317114,-11.94914303,59.02285226,-12.96520208,1.61413375
-1.96527300,-0.60695602,0.31519057,-1.20128074,2.40017806

>  <Name>
1q8n_lig

>  <RI>
0

>  <Rbt.Current_Directory>
/home/itssahil/PROJECTS/Mol_Feturizer/New_Systems/rnas/1q8n

>  <Rbt.Executable>
rbdock ($Id: //depot/dev/client3/rdock/2013.1/src/exe/rbdock.cxx#4 $)

>  <Rbt.Library>
libRbt.so (2013.1, Build901 2013/11/27)

>  <Rbt.Parameter_File>
/export/apps/rDock/src/rDock_2013.1_src/data/scripts/dock_solv.prm

>  <Rbt.Receptor>
prm/pocket_docking_7.prm

>  <SCORE>
-35.8682

>  <SCORE.INTER>
-38.5329

>  <SCORE.INTER.CONST>
1

>  <SCORE.INTER.POLAR>
0

>  <SCORE.INTER.ROT>
5

>  <SCORE.INTER.SOLV>
10.6166

>  <SCORE.INTER.VDW>
-36.1608

>  <SCORE.INTER.norm>
-1.54132

>  <SCORE.INTRA>
2.66475

>  <SCORE.INTRA.DIHEDRAL>
10.0524

>  <SCORE.INTRA.DIHEDRAL.0>
2.1627

>  <SCORE.INTRA.POLAR>
0

>  <SCORE.INTRA.POLAR.0>
0

>  <SCORE.INTRA.REPUL>
0

>  <SCORE.INTRA.REPUL.0>
0

>  <SCORE.INTRA.SOLV>
0.0345006

>  <SCORE.INTRA.SOLV.lig_0>
-5.95779

>  <SCORE.INTRA.VDW>
-2.37872

>  <SCORE.INTRA.VDW.0>
3.81702

>  <SCORE.INTRA.norm>
0.10659

>  <SCORE.RESTR>
0

>  <SCORE.RESTR.CAVITY>
0

>  <SCORE.RESTR.norm>
0

>  <SCORE.SYSTEM>
0

>  <SCORE.SYSTEM.CONST>
0

>  <SCORE.SYSTEM.DIHEDRAL>
0

>  <SCORE.SYSTEM.SOLV>
0

>  <SCORE.SYSTEM.norm>
0

>  <SCORE.heavy>
25

>  <SCORE.norm>
-1.43473

>  <RMSD>
5.711

$$$$
1q8n_lig
 OpenBabel11021811403D
libRbt.so/2013.1/901 2013/11/27
 25 27  0  0  0  0  0  0  0  0999 V2000
    0.5380   -0.1612    0.1117 C   0  0  0  0  0  0  0  0  0  0  0  0
    0.9808   -1.7282   -0.0064 C   0  0  0  0  0  0  0  0  0  0  0  0
   -1.1288    1.8900    5.4442 N   0  0  0  0  0  0  0  0  0  0  0  0
    1.5669   -2.2585   -1.1064 C   0  0  0  0  0  0  0  0  0  0  0  0
    0.4406    3.3144   -4.7693 N   0  0  0  0  0  0  0  0  0  0  0  0
    1.9482   -3.6881   -1.1749 C   0  0  0  0  0  0  0  0  0  0  0  0
    1.7119   -4.4974   -0.1169 C   0  0  0  0  0  0  0  0  0  0  0  0
    1.0940   -3.9508    1.0685 C   0  0  0  0  0  0  0  0  0  0  0  0
    0.7531   -2.6606    1.1173 C   0  0  0  0  0  0  0  0  0  0  0  0
    0.0800    0.4057    1.5708 C   0  0  0  0  0  0  0  0  0  0  0  0
   -0.6490    1.5353    1.6849 C   0  0  0  0  0  0  0  0  0  0  0  0
   -1.0759    2.0675    3.0086 C   0  0  0  0  0  0  0  0  0  0  0  0
   -0.7364    1.4128    4.1512 C   0  0  0  0  0  0  0  0  0  0  0  0
    0.0586    0.1751    4.0421 C   0  0  0  0  0  0  0  0  0  0  0  0
    0.4362   -0.2890    2.8427 C   0  0  0  0  0  0  0  0  0  0  0  0
    0.5438    0.8484   -1.2034 C   0  0  0  0  0  0  0  0  0  0  0  0
    0.1176    0.3269   -2.5480 C   0  0  0  0  0  0  0  0  0  0  0  0
    0.0904    1.0898   -3.6441 C   0  0  0  0  0  0  0  0  0  0  0  0
    0.4840    2.5025   -3.5893 C   0  0  0  0  0  0  0  0  0  0  0  0
    0.8809    3.0193   -2.4078 C   0  0  0  0  0  0  0  0  0  0  0  0
    0.9141    2.1717   -1.1687 C   0  0  0  0  0  0  0  0  0  0  0  0
   -0.5593    1.3771    6.6529 C   0  0  0  0  0  0  0  0  0  0  0  0
   -2.1203    2.9139    5.5622 C   0  0  0  0  0  0  0  0  0  0  0  0
   -0.3170    2.8925   -5.9123 C   0  0  0  0  0  0  0  0  0  0  0  0
    1.1473    4.5734   -4.8402 C   0  0  0  0  0  0  0  0  0  0  0  0
  1  2  1  0  0  0  0
  1 10  1  0  0  0  0
  1 16  1  0  0  0  0
  2  4  2  0  0  0  0
  2  9  1  0  0  0  0
  4  6  1  0  0  0  0
  6  7  2  0  0  0  0
  7  8  1  0  0  0  0
  8  9  2  0  0  0  0
 10 11  2  0  0  0  0
 10 15  1  0  0  0  0
 11 12  1  0  0  0  0
 12 13  2  0  0  0  0
 13  3  1  0  0  0  0
 13 14  1  0  0  0  0
 14 15  2  0  0  0  0
 16 17  2  0  0  0  0
 16 21  1  0  0  0  0
 17 18  1  0  0  0  0
 18 19  2  0  0  0  0
 19  5  1  0  0  0  0
 19 20  1  0  0  0  0
 20 21  2  0  0  0  0
 22  3  1  0  0  0  0
 23  3  1  0  0  0  0
 24  5  1  0  0  0  0
 25  5  1  0  0  0  0
M  END
>  <CHROM.1>
-169.69743624,-160.65002851,37.91241854,-166.94113888,17.26924639,0.26616347
0.60005322,0.19601412,-2.01297310,1.25383490,-0.98017139

>  <Name>
1q8n_lig

>  <RI>
0

>  <Rbt.Current_Directory>
/home/itssahil/PROJECTS/Mol_Feturizer/New_Systems/rnas/1q8n

>  <Rbt.Executable>
rbdock ($Id: //depot/dev/client3/rdock/2013.1/src/exe/rbdock.cxx#4 $)

>  <Rbt.Library>
libRbt.so (2013.1, Build901 2013/11/27)

>  <Rbt.Parameter_File>
/export/apps/rDock/src/rDock_2013.1_src/data/scripts/dock_solv.prm

>  <Rbt.Receptor>
prm/pocket_docking_3.prm

>  <SCORE>
-43.3061

>  <SCORE.INTER>
-44.8775

>  <SCORE.INTER.CONST>
1

>  <SCORE.INTER.POLAR>
0

>  <SCORE.INTER.ROT>
5

>  <SCORE.INTER.SOLV>
9.81008

>  <SCORE.INTER.VDW>
-40.1217

>  <SCORE.INTER.norm>
-1.7951

>  <SCORE.INTRA>
0.934737

>  <SCORE.INTRA.DIHEDRAL>
1.77766

>  <SCORE.INTRA.DIHEDRAL.0>
2.1627

>  <SCORE.INTRA.POLAR>
0

>  <SCORE.INTRA.POLAR.0>
0

>  <SCORE.INTRA.REPUL>
0

>  <SCORE.INTRA.REPUL.0>
0

>  <SCORE.INTRA.SOLV>
0.0451989

>  <SCORE.INTRA.SOLV.lig_0>
-5.95779

>  <SCORE.INTRA.VDW>
0.0233075

>  <SCORE.INTRA.VDW.0>
3.81702

>  <SCORE.INTRA.norm>
0.0373895

>  <SCORE.RESTR>
0.636575

>  <SCORE.RESTR.CAVITY>
0.636575

>  <SCORE.RESTR.norm>
0.025463

>  <SCORE.SYSTEM>
0

>  <SCORE.SYSTEM.CONST>
0

>  <SCORE.SYSTEM.DIHEDRAL>
0

>  <SCORE.SYSTEM.SOLV>
0

>  <SCORE.SYSTEM.norm>
0

>  <SCORE.heavy>
25

>  <SCORE.norm>
-1.73225

>  <RMSD>
5.712

$$$$
1q8n_lig
 OpenBabel11021811403D
libRbt.so/2013.1/901 2013/11/27
 25 27  0  0  0  0  0  0  0  0999 V2000
    0.5200   -0.2295    0.2515 C   0  0  0  0  0  0  0  0  0  0  0  0
    0.9952   -1.7779    0.0466 C   0  0  0  0  0  0  0  0  0  0  0  0
    0.5079    3.3556   -4.4991 N   0  0  0  0  0  0  0  0  0  0  0  0
    0.8653   -2.7320    0.9993 C   0  0  0  0  0  0  0  0  0  0  0  0
   -1.0363    1.6968    5.7087 N   0  0  0  0  0  0  0  0  0  0  0  0
    1.3151   -4.1252    0.7747 C   0  0  0  0  0  0  0  0  0  0  0  0
    1.8711   -4.4686   -0.4097 C   0  0  0  0  0  0  0  0  0  0  0  0
    2.0129   -3.4683   -1.4418 C   0  0  0  0  0  0  0  0  0  0  0  0
    1.6052   -2.2151   -1.2265 C   0  0  0  0  0  0  0  0  0  0  0  0
    0.5168    0.7573   -1.0471 C   0  0  0  0  0  0  0  0  0  0  0  0
    0.8294    2.0648   -0.9327 C   0  0  0  0  0  0  0  0  0  0  0  0
    0.8316    2.9803   -2.1073 C   0  0  0  0  0  0  0  0  0  0  0  0
    0.5156    2.5088   -3.3431 C   0  0  0  0  0  0  0  0  0  0  0  0
    0.1737    1.0808   -3.4841 C   0  0  0  0  0  0  0  0  0  0  0  0
    0.1749    0.2710   -2.4160 C   0  0  0  0  0  0  0  0  0  0  0  0
    0.0494    0.3500    1.7319 C   0  0  0  0  0  0  0  0  0  0  0  0
    0.4216   -0.4003    2.9809 C   0  0  0  0  0  0  0  0  0  0  0  0
    0.0822    0.0172    4.2036 C   0  0  0  0  0  0  0  0  0  0  0  0
   -0.6870    1.2528    4.3918 C   0  0  0  0  0  0  0  0  0  0  0  0
   -1.0520    1.9611    3.3030 C   0  0  0  0  0  0  0  0  0  0  0  0
   -0.6748    1.5024    1.9237 C   0  0  0  0  0  0  0  0  0  0  0  0
    1.2213    4.5957   -4.5423 C   0  0  0  0  0  0  0  0  0  0  0  0
   -0.2278    2.9744   -5.6647 C   0  0  0  0  0  0  0  0  0  0  0  0
   -0.5689    0.9834    6.8623 C   0  0  0  0  0  0  0  0  0  0  0  0
   -1.8572    2.8691    5.9120 C   0  0  0  0  0  0  0  0  0  0  0  0
  1  2  1  0  0  0  0
  1 10  1  0  0  0  0
  1 16  1  0  0  0  0
  2  4  2  0  0  0  0
  2  9  1  0  0  0  0
  4  6  1  0  0  0  0
  6  7  2  0  0  0  0
  7  8  1  0  0  0  0
  8  9  2  0  0  0  0
 10 11  2  0  0  0  0
 10 15  1  0  0  0  0
 11 12  1  0  0  0  0
 12 13  2  0  0  0  0
 13  3  1  0  0  0  0
 13 14  1  0  0  0  0
 14 15  2  0  0  0  0
 16 17  2  0  0  0  0
 16 21  1  0  0  0  0
 17 18  1  0  0  0  0
 18 19  2  0  0  0  0
 19  5  1  0  0  0  0
 19 20  1  0  0  0  0
 20 21  2  0  0  0  0
 22  3  1  0  0  0  0
 23  3  1  0  0  0  0
 24  5  1  0  0  0  0
 25  5  1  0  0  0  0
M  END
>  <CHROM.1>
-170.54548509,-144.96394013,17.83162577,20.65605918,3.81974000,0.31655473
0.54039528,0.32804372,-2.05416147,1.25624903,-0.96460331

>  <Name>
1q8n_lig

>  <RI>
0

>  <Rbt.Current_Directory>
/home/itssahil/PROJECTS/Mol_Feturizer/New_Systems/rnas/1q8n

>  <Rbt.Executable>
rbdock ($Id: //depot/dev/client3/rdock/2013.1/src/exe/rbdock.cxx#4 $)

>  <Rbt.Library>
libRbt.so (2013.1, Build901 2013/11/27)

>  <Rbt.Parameter_File>
/export/apps/rDock/src/rDock_2013.1_src/data/scripts/dock_solv.prm

>  <Rbt.Receptor>
prm/pocket_docking_5.prm

>  <SCORE>
-45.6102

>  <SCORE.INTER>
-46.394

>  <SCORE.INTER.CONST>
1

>  <SCORE.INTER.POLAR>
0

>  <SCORE.INTER.ROT>
5

>  <SCORE.INTER.SOLV>
9.44422

>  <SCORE.INTER.VDW>
-41.0107

>  <SCORE.INTER.norm>
-1.85576

>  <SCORE.INTRA>
0.783817

>  <SCORE.INTRA.DIHEDRAL>
1.64712

>  <SCORE.INTRA.DIHEDRAL.0>
2.1627

>  <SCORE.INTRA.POLAR>
0

>  <SCORE.INTRA.POLAR.0>
0

>  <SCORE.INTRA.REPUL>
0

>  <SCORE.INTRA.REPUL.0>
0

>  <SCORE.INTRA.SOLV>
0.0488761

>  <SCORE.INTRA.SOLV.lig_0>
-5.95779

>  <SCORE.INTRA.VDW>
-0.0641821

>  <SCORE.INTRA.VDW.0>
3.81702

>  <SCORE.INTRA.norm>
0.0313527

>  <SCORE.RESTR>
0

>  <SCORE.RESTR.CAVITY>
0

>  <SCORE.RESTR.norm>
0

>  <SCORE.SYSTEM>
0

>  <SCORE.SYSTEM.CONST>
0

>  <SCORE.SYSTEM.DIHEDRAL>
0

>  <SCORE.SYSTEM.SOLV>
0

>  <SCORE.SYSTEM.norm>
0

>  <SCORE.heavy>
25

>  <SCORE.norm>
-1.82441

>  <RMSD>
5.714

$$$$
1q8n_lig
 OpenBabel11021811403D
libRbt.so/2013.1/901 2013/11/27
 25 27  0  0  0  0  0  0  0  0999 V2000
    0.5410   -0.3606    0.0567 C   0  0  0  0  0  0  0  0  0  0  0  0
    0.9849   -1.9281   -0.0502 C   0  0  0  0  0  0  0  0  0  0  0  0
   -0.9860    1.8028    5.3867 N   0  0  0  0  0  0  0  0  0  0  0  0
    0.8590   -2.8117    0.9688 C   0  0  0  0  0  0  0  0  0  0  0  0
    0.5272    3.3880   -4.6189 N   0  0  0  0  0  0  0  0  0  0  0  0
    1.2797   -4.2253    0.8322 C   0  0  0  0  0  0  0  0  0  0  0  0
    1.8041   -4.6598   -0.3366 C   0  0  0  0  0  0  0  0  0  0  0  0
    1.9410   -3.7357   -1.4381 C   0  0  0  0  0  0  0  0  0  0  0  0
    1.5597   -2.4633   -1.3020 C   0  0  0  0  0  0  0  0  0  0  0  0
    0.1239    0.2276    1.5196 C   0  0  0  0  0  0  0  0  0  0  0  0
    0.5029   -0.3922    2.6565 C   0  0  0  0  0  0  0  0  0  0  0  0
    0.1312    0.1304    4.0007 C   0  0  0  0  0  0  0  0  0  0  0  0
   -0.6090    1.2656    4.1128 C   0  0  0  0  0  0  0  0  0  0  0  0
   -1.0289    1.9556    2.8784 C   0  0  0  0  0  0  0  0  0  0  0  0
   -0.6872    1.4704    1.6765 C   0  0  0  0  0  0  0  0  0  0  0  0
    0.5055    0.6286   -1.2734 C   0  0  0  0  0  0  0  0  0  0  0  0
    0.8957    2.0748   -1.1399 C   0  0  0  0  0  0  0  0  0  0  0  0
    0.8979    2.9216   -2.1730 C   0  0  0  0  0  0  0  0  0  0  0  0
    0.5107    2.4736   -3.5158 C   0  0  0  0  0  0  0  0  0  0  0  0
    0.1457    1.1863   -3.6893 C   0  0  0  0  0  0  0  0  0  0  0  0
    0.1409    0.2249   -2.5357 C   0  0  0  0  0  0  0  0  0  0  0  0
   -0.6915    1.1317    6.6161 C   0  0  0  0  0  0  0  0  0  0  0  0
   -1.6801    3.0508    5.4638 C   0  0  0  0  0  0  0  0  0  0  0  0
   -0.1841    3.0807   -5.8263 C   0  0  0  0  0  0  0  0  0  0  0  0
    1.2490    4.6383   -4.5462 C   0  0  0  0  0  0  0  0  0  0  0  0
  1  2  1  0  0  0  0
  1 10  1  0  0  0  0
  1 16  1  0  0  0  0
  2  4  2  0  0  0  0
  2  9  1  0  0  0  0
  4  6  1  0  0  0  0
  6  7  2  0  0  0  0
  7  8  1  0  0  0  0
  8  9  2  0  0  0  0
 10 11  2  0  0  0  0
 10 15  1  0  0  0  0
 11 12  1  0  0  0  0
 12 13  2  0  0  0  0
 13  3  1  0  0  0  0
 13 14  1  0  0  0  0
 14 15  2  0  0  0  0
 16 17  2  0  0  0  0
 16 21  1  0  0  0  0
 17 18  1  0  0  0  0
 18 19  2  0  0  0  0
 19  5  1  0  0  0  0
 19 20  1  0  0  0  0
 20 21  2  0  0  0  0
 22  3  1  0  0  0  0
 23  3  1  0  0  0  0
 24  5  1  0  0  0  0
 25  5  1  0  0  0  0
M  END
>  <CHROM.1>
9.01789728,19.81764518,-144.00826348,-4.56283929,-162.67870317,0.33006532
0.51628395,0.15697846,-2.03858083,1.27137794,-0.94693710

>  <Name>
1q8n_lig

>  <RI>
0

>  <Rbt.Current_Directory>
/home/itssahil/PROJECTS/Mol_Feturizer/New_Systems/rnas/1q8n

>  <Rbt.Executable>
rbdock ($Id: //depot/dev/client3/rdock/2013.1/src/exe/rbdock.cxx#4 $)

>  <Rbt.Library>
libRbt.so (2013.1, Build901 2013/11/27)

>  <Rbt.Parameter_File>
/export/apps/rDock/src/rDock_2013.1_src/data/scripts/dock_solv.prm

>  <Rbt.Receptor>
prm/blind_docking_80.prm

>  <SCORE>
-45.3497

>  <SCORE.INTER>
-46.288

>  <SCORE.INTER.CONST>
1

>  <SCORE.INTER.POLAR>
0

>  <SCORE.INTER.ROT>
5

>  <SCORE.INTER.SOLV>
9.90076

>  <SCORE.INTER.VDW>
-41.0922

>  <SCORE.INTER.norm>
-1.85152

>  <SCORE.INTRA>
0.922193

>  <SCORE.INTRA.DIHEDRAL>
1.21238

>  <SCORE.INTRA.DIHEDRAL.0>
2.1627

>  <SCORE.INTRA.POLAR>
0

>  <SCORE.INTRA.POLAR.0>
0

>  <SCORE.INTRA.REPUL>
0

>  <SCORE.INTRA.REPUL.0>
0

>  <SCORE.INTRA.SOLV>
0.0457311

>  <SCORE.INTRA.SOLV.lig_0>
-5.95779

>  <SCORE.INTRA.VDW>
0.293139

>  <SCORE.INTRA.VDW.0>
3.81702

>  <SCORE.INTRA.norm>
0.0368877

>  <SCORE.RESTR>
0.0160828

>  <SCORE.RESTR.CAVITY>
0.0160828

>  <SCORE.RESTR.norm>
0.000643311

>  <SCORE.SYSTEM>
0

>  <SCORE.SYSTEM.CONST>
0

>  <SCORE.SYSTEM.DIHEDRAL>
0

>  <SCORE.SYSTEM.SOLV>
0

>  <SCORE.SYSTEM.norm>
0

>  <SCORE.heavy>
25

>  <SCORE.norm>
-1.81399

>  <RMSD>
5.724

$$$$
1q8n_lig
 OpenBabel11021811413D
libRbt.so/2013.1/901 2013/11/27
 25 27  0  0  0  0  0  0  0  0999 V2000
    0.6383   -0.3830    0.2162 C   0  0  0  0  0  0  0  0  0  0  0  0
    1.0923   -1.9306   -0.0376 C   0  0  0  0  0  0  0  0  0  0  0  0
    0.5220    3.3096   -4.4499 N   0  0  0  0  0  0  0  0  0  0  0  0
    1.6354   -2.3695   -1.1984 C   0  0  0  0  0  0  0  0  0  0  0  0
   -1.0384    1.7635    5.5542 N   0  0  0  0  0  0  0  0  0  0  0  0
    2.0286   -3.7846   -1.3899 C   0  0  0  0  0  0  0  0  0  0  0  0
    1.8476   -4.6734   -0.3863 C   0  0  0  0  0  0  0  0  0  0  0  0
    1.2763   -4.2251    0.8621 C   0  0  0  0  0  0  0  0  0  0  0  0
    0.9240   -2.9470    1.0219 C   0  0  0  0  0  0  0  0  0  0  0  0
    0.6066    0.6332   -1.0592 C   0  0  0  0  0  0  0  0  0  0  0  0
    0.9231    1.9376   -0.9221 C   0  0  0  0  0  0  0  0  0  0  0  0
    0.8995    2.8797   -2.0753 C   0  0  0  0  0  0  0  0  0  0  0  0
    0.5551    2.4366   -3.3140 C   0  0  0  0  0  0  0  0  0  0  0  0
    0.2086    1.0124   -3.4797 C   0  0  0  0  0  0  0  0  0  0  0  0
    0.2331    0.1784   -2.4307 C   0  0  0  0  0  0  0  0  0  0  0  0
    0.2169    0.1667    1.7225 C   0  0  0  0  0  0  0  0  0  0  0  0
   -0.6239    1.4062    1.8576 C   0  0  0  0  0  0  0  0  0  0  0  0
   -1.0055    1.8958    3.0404 C   0  0  0  0  0  0  0  0  0  0  0  0
   -0.6142    1.2356    4.2913 C   0  0  0  0  0  0  0  0  0  0  0  0
    0.1458    0.1226    4.2265 C   0  0  0  0  0  0  0  0  0  0  0  0
    0.5795   -0.4378    2.9026 C   0  0  0  0  0  0  0  0  0  0  0  0
    1.2178    4.5602   -4.4727 C   0  0  0  0  0  0  0  0  0  0  0  0
   -0.2225    2.9451   -5.6153 C   0  0  0  0  0  0  0  0  0  0  0  0
   -1.7796    2.9904    5.6151 C   0  0  0  0  0  0  0  0  0  0  0  0
   -0.7401    1.0790    6.7919 C   0  0  0  0  0  0  0  0  0  0  0  0
  1  2  1  0  0  0  0
  1 10  1  0  0  0  0
  1 16  1  0  0  0  0
  2  4  2  0  0  0  0
  2  9  1  0  0  0  0
  4  6  1  0  0  0  0
  6  7  2  0  0  0  0
  7  8  1  0  0  0  0
  8  9  2  0  0  0  0
 10 11  2  0  0  0  0
 10 15  1  0  0  0  0
 11 12  1  0  0  0  0
 12 13  2  0  0  0  0
 13  3  1  0  0  0  0
 13 14  1  0  0  0  0
 14 15  2  0  0  0  0
 16 17  2  0  0  0  0
 16 21  1  0  0  0  0
 17 18  1  0  0  0  0
 18 19  2  0  0  0  0
 19  5  1  0  0  0  0
 19 20  1  0  0  0  0
 20 21  2  0  0  0  0
 22  3  1  0  0  0  0
 23  3  1  0  0  0  0
 24  5  1  0  0  0  0
 25  5  1  0  0  0  0
M  END
>  <CHROM.1>
10.35339411,-145.58667322,-159.06213950,19.61514199,-3.93989926,0.35878367
0.46416275,0.29900748,-1.07742618,-1.26056609,2.18567717

>  <Name>
1q8n_lig

>  <RI>
0

>  <Rbt.Current_Directory>
/home/itssahil/PROJECTS/Mol_Feturizer/New_Systems/rnas/1q8n

>  <Rbt.Executable>
rbdock ($Id: //depot/dev/client3/rdock/2013.1/src/exe/rbdock.cxx#4 $)

>  <Rbt.Library>
libRbt.so (2013.1, Build901 2013/11/27)

>  <Rbt.Parameter_File>
/export/apps/rDock/src/rDock_2013.1_src/data/scripts/dock_solv.prm

>  <Rbt.Receptor>
prm/pocket_docking_7.prm

>  <SCORE>
-45.9816

>  <SCORE.INTER>
-46.6334

>  <SCORE.INTER.CONST>
1

>  <SCORE.INTER.POLAR>
0

>  <SCORE.INTER.ROT>
5

>  <SCORE.INTER.SOLV>
9.61488

>  <SCORE.INTER.VDW>
-41.2272

>  <SCORE.INTER.norm>
-1.86533

>  <SCORE.INTRA>
0.651777

>  <SCORE.INTRA.DIHEDRAL>
1.50344

>  <SCORE.INTRA.DIHEDRAL.0>
2.1627

>  <SCORE.INTRA.POLAR>
0

>  <SCORE.INTRA.POLAR.0>
0

>  <SCORE.INTRA.REPUL>
0

>  <SCORE.INTRA.REPUL.0>
0

>  <SCORE.INTRA.SOLV>
0.0456573

>  <SCORE.INTRA.SOLV.lig_0>
-5.95779

>  <SCORE.INTRA.VDW>
-0.122771

>  <SCORE.INTRA.VDW.0>
3.81702

>  <SCORE.INTRA.norm>
0.0260711

>  <SCORE.RESTR>
0

>  <SCORE.RESTR.CAVITY>
0

>  <SCORE.RESTR.norm>
0

>  <SCORE.SYSTEM>
0

>  <SCORE.SYSTEM.CONST>
0

>  <SCORE.SYSTEM.DIHEDRAL>
0

>  <SCORE.SYSTEM.SOLV>
0

>  <SCORE.SYSTEM.norm>
0

>  <SCORE.heavy>
25

>  <SCORE.norm>
-1.83926

>  <RMSD>
5.731

$$$$
1q8n_lig
 OpenBabel11021811403D
libRbt.so/2013.1/901 2013/11/27
 25 27  0  0  0  0  0  0  0  0999 V2000
    0.5323   -0.3459    0.0725 C   0  0  0  0  0  0  0  0  0  0  0  0
    0.9782   -1.9124   -0.0407 C   0  0  0  0  0  0  0  0  0  0  0  0
   -1.0301    1.7475    5.4202 N   0  0  0  0  0  0  0  0  0  0  0  0
    0.8415   -2.8034    0.9703 C   0  0  0  0  0  0  0  0  0  0  0  0
    0.5561    3.4318   -4.5795 N   0  0  0  0  0  0  0  0  0  0  0  0
    1.2644   -4.2158    0.8282 C   0  0  0  0  0  0  0  0  0  0  0  0
    1.8019   -4.6416   -0.3379 C   0  0  0  0  0  0  0  0  0  0  0  0
    1.9504   -3.7096   -1.4312 C   0  0  0  0  0  0  0  0  0  0  0  0
    1.5670   -2.4383   -1.2900 C   0  0  0  0  0  0  0  0  0  0  0  0
    0.1030    0.2325    1.5358 C   0  0  0  0  0  0  0  0  0  0  0  0
   -0.6096    1.3719    1.6558 C   0  0  0  0  0  0  0  0  0  0  0  0
   -1.0104    1.9148    2.9835 C   0  0  0  0  0  0  0  0  0  0  0  0
   -0.6627    1.2602    4.1236 C   0  0  0  0  0  0  0  0  0  0  0  0
    0.1146    0.0118    4.0081 C   0  0  0  0  0  0  0  0  0  0  0  0
    0.4686   -0.4618    2.8052 C   0  0  0  0  0  0  0  0  0  0  0  0
    0.5070    0.6518   -1.2513 C   0  0  0  0  0  0  0  0  0  0  0  0
    0.9076    2.0942   -1.1080 C   0  0  0  0  0  0  0  0  0  0  0  0
    0.9183    2.9473   -2.1358 C   0  0  0  0  0  0  0  0  0  0  0  0
    0.5306    2.5106   -3.4822 C   0  0  0  0  0  0  0  0  0  0  0  0
    0.1564    1.2271   -3.6644 C   0  0  0  0  0  0  0  0  0  0  0  0
    0.1420    0.2587   -2.5169 C   0  0  0  0  0  0  0  0  0  0  0  0
   -1.7396    2.9773    5.6012 C   0  0  0  0  0  0  0  0  0  0  0  0
   -0.6907    1.0006    6.5917 C   0  0  0  0  0  0  0  0  0  0  0  0
    1.2990    4.6553   -4.4820 C   0  0  0  0  0  0  0  0  0  0  0  0
   -0.1541    3.1554   -5.8077 C   0  0  0  0  0  0  0  0  0  0  0  0
  1  2  1  0  0  0  0
  1 10  1  0  0  0  0
  1 16  1  0  0  0  0
  2  4  2  0  0  0  0
  2  9  1  0  0  0  0
  4  6  1  0  0  0  0
  6  7  2  0  0  0  0
  7  8  1  0  0  0  0
  8  9  2  0  0  0  0
 10 11  2  0  0  0  0
 10 15  1  0  0  0  0
 11 12  1  0  0  0  0
 12 13  2  0  0  0  0
 13  3  1  0  0  0  0
 13 14  1  0  0  0  0
 14 15  2  0  0  0  0
 16 17  2  0  0  0  0
 16 21  1  0  0  0  0
 17 18  1  0  0  0  0
 18 19  2  0  0  0  0
 19  5  1  0  0  0  0
 19 20  1  0  0  0  0
 20 21  2  0  0  0  0
 22  3  1  0  0  0  0
 23  3  1  0  0  0  0
 24  5  1  0  0  0  0
 25  5  1  0  0  0  0
M  END
>  <CHROM.1>
9.18875451,-161.70164709,-143.42829983,-2.46234875,17.66457238,0.33068537
0.50922606,0.18745714,-2.04945414,1.26813337,-0.92115978

>  <Name>
1q8n_lig

>  <RI>
0

>  <Rbt.Current_Directory>
/home/itssahil/PROJECTS/Mol_Feturizer/New_Systems/rnas/1q8n

>  <Rbt.Executable>
rbdock ($Id: //depot/dev/client3/rdock/2013.1/src/exe/rbdock.cxx#4 $)

>  <Rbt.Library>
libRbt.so (2013.1, Build901 2013/11/27)

>  <Rbt.Parameter_File>
/export/apps/rDock/src/rDock_2013.1_src/data/scripts/dock_solv.prm

>  <Rbt.Receptor>
prm/blind_docking_80.prm

>  <SCORE>
-45.1787

>  <SCORE.INTER>
-45.9516

>  <SCORE.INTER.CONST>
1

>  <SCORE.INTER.POLAR>
0

>  <SCORE.INTER.ROT>
5

>  <SCORE.INTER.SOLV>
9.79207

>  <SCORE.INTER.VDW>
-40.8318

>  <SCORE.INTER.norm>
-1.83807

>  <SCORE.INTRA>
0.772942

>  <SCORE.INTRA.DIHEDRAL>
1.20058

>  <SCORE.INTRA.DIHEDRAL.0>
2.1627

>  <SCORE.INTRA.POLAR>
0

>  <SCORE.INTRA.POLAR.0>
0

>  <SCORE.INTRA.REPUL>
0

>  <SCORE.INTRA.REPUL.0>
0

>  <SCORE.INTRA.SOLV>
0.0465319

>  <SCORE.INTRA.SOLV.lig_0>
-5.95779

>  <SCORE.INTRA.VDW>
0.149385

>  <SCORE.INTRA.VDW.0>
3.81702

>  <SCORE.INTRA.norm>
0.0309177

>  <SCORE.RESTR>
0

>  <SCORE.RESTR.CAVITY>
0

>  <SCORE.RESTR.norm>
0

>  <SCORE.SYSTEM>
0

>  <SCORE.SYSTEM.CONST>
0

>  <SCORE.SYSTEM.DIHEDRAL>
0

>  <SCORE.SYSTEM.SOLV>
0

>  <SCORE.SYSTEM.norm>
0

>  <SCORE.heavy>
25

>  <SCORE.norm>
-1.80715

>  <RMSD>
5.740

$$$$
1q8n_lig
 OpenBabel11021811403D
libRbt.so/2013.1/901 2013/11/27
 25 27  0  0  0  0  0  0  0  0999 V2000
    0.5206   -0.1620    0.2349 C   0  0  0  0  0  0  0  0  0  0  0  0
    0.9994   -1.7092    0.0289 C   0  0  0  0  0  0  0  0  0  0  0  0
    0.5666    3.4446   -4.4993 N   0  0  0  0  0  0  0  0  0  0  0  0
    1.5742   -2.1686   -1.1083 C   0  0  0  0  0  0  0  0  0  0  0  0
   -1.1029    1.7410    5.6806 N   0  0  0  0  0  0  0  0  0  0  0  0
    1.9893   -3.5827   -1.2566 C   0  0  0  0  0  0  0  0  0  0  0  0
    1.7964   -4.4496   -0.2361 C   0  0  0  0  0  0  0  0  0  0  0  0
    1.1912   -3.9790    0.9879 C   0  0  0  0  0  0  0  0  0  0  0  0
    0.8196   -2.7021    1.1087 C   0  0  0  0  0  0  0  0  0  0  0  0
    0.5331    0.8307   -1.0592 C   0  0  0  0  0  0  0  0  0  0  0  0
    0.8151    2.1438   -0.9307 C   0  0  0  0  0  0  0  0  0  0  0  0
    0.8311    3.0648   -2.1009 C   0  0  0  0  0  0  0  0  0  0  0  0
    0.5596    2.5926   -3.3470 C   0  0  0  0  0  0  0  0  0  0  0  0
    0.2516    1.1585   -3.5035 C   0  0  0  0  0  0  0  0  0  0  0  0
    0.2397    0.3439   -2.4391 C   0  0  0  0  0  0  0  0  0  0  0  0
    0.0309    0.4104    1.7118 C   0  0  0  0  0  0  0  0  0  0  0  0
    0.4045   -0.3347    2.9635 C   0  0  0  0  0  0  0  0  0  0  0  0
    0.0503    0.0777    4.1836 C   0  0  0  0  0  0  0  0  0  0  0  0
   -0.7377    1.3022    4.3663 C   0  0  0  0  0  0  0  0  0  0  0  0
   -1.1047    2.0055    3.2748 C   0  0  0  0  0  0  0  0  0  0  0  0
   -0.7109    1.5525    1.8984 C   0  0  0  0  0  0  0  0  0  0  0  0
   -0.1459    3.1162   -5.6963 C   0  0  0  0  0  0  0  0  0  0  0  0
    1.3007    4.6718   -4.4816 C   0  0  0  0  0  0  0  0  0  0  0  0
   -1.8767    2.9362    5.8572 C   0  0  0  0  0  0  0  0  0  0  0  0
   -0.7114    0.9963    6.8560 C   0  0  0  0  0  0  0  0  0  0  0  0
  1  2  1  0  0  0  0
  1 10  1  0  0  0  0
  1 16  1  0  0  0  0
  2  4  2  0  0  0  0
  2  9  1  0  0  0  0
  4  6  1  0  0  0  0
  6  7  2  0  0  0  0
  7  8  1  0  0  0  0
  8  9  2  0  0  0  0
 10 11  2  0  0  0  0
 10 15  1  0  0  0  0
 11 12  1  0  0  0  0
 12 13  2  0  0  0  0
 13  3  1  0  0  0  0
 13 14  1  0  0  0  0
 14 15  2  0  0  0  0
 16 17  2  0  0  0  0
 16 21  1  0  0  0  0
 17 18  1  0  0  0  0
 18 19  2  0  0  0  0
 19  5  1  0  0  0  0
 19 20  1  0  0  0  0
 20 21  2  0  0  0  0
 22  3  1  0  0  0  0
 23  3  1  0  0  0  0
 24  5  1  0  0  0  0
 25  5  1  0  0  0  0
M  END
>  <CHROM.1>
9.18105345,-146.41294120,18.70054812,-157.50896721,-179.81365467,0.30388026
0.60053097,0.34842434,-1.06767032,-1.25391201,2.22307538

>  <Name>
1q8n_lig

>  <RI>
0

>  <Rbt.Current_Directory>
/home/itssahil/PROJECTS/Mol_Feturizer/New_Systems/rnas/1q8n

>  <Rbt.Executable>
rbdock ($Id: //depot/dev/client3/rdock/2013.1/src/exe/rbdock.cxx#4 $)

>  <Rbt.Library>
libRbt.so (2013.1, Build901 2013/11/27)

>  <Rbt.Parameter_File>
/export/apps/rDock/src/rDock_2013.1_src/data/scripts/dock_solv.prm

>  <Rbt.Receptor>
prm/pocket_docking_5.prm

>  <SCORE>
-45.2605

>  <SCORE.INTER>
-46.1995

>  <SCORE.INTER.CONST>
1

>  <SCORE.INTER.POLAR>
0

>  <SCORE.INTER.ROT>
5

>  <SCORE.INTER.SOLV>
9.59717

>  <SCORE.INTER.VDW>
-40.9321

>  <SCORE.INTER.norm>
-1.84798

>  <SCORE.INTRA>
0.939013

>  <SCORE.INTRA.DIHEDRAL>
1.87096

>  <SCORE.INTRA.DIHEDRAL.0>
2.1627

>  <SCORE.INTRA.POLAR>
0

>  <SCORE.INTRA.POLAR.0>
0

>  <SCORE.INTRA.REPUL>
0

>  <SCORE.INTRA.REPUL.0>
0

>  <SCORE.INTRA.SOLV>
0.050035

>  <SCORE.INTRA.SOLV.lig_0>
-5.95779

>  <SCORE.INTRA.VDW>
-0.0214823

>  <SCORE.INTRA.VDW.0>
3.81702

>  <SCORE.INTRA.norm>
0.0375605

>  <SCORE.RESTR>
0

>  <SCORE.RESTR.CAVITY>
0

>  <SCORE.RESTR.norm>
0

>  <SCORE.SYSTEM>
0

>  <SCORE.SYSTEM.CONST>
0

>  <SCORE.SYSTEM.DIHEDRAL>
0

>  <SCORE.SYSTEM.SOLV>
0

>  <SCORE.SYSTEM.norm>
0

>  <SCORE.heavy>
25

>  <SCORE.norm>
-1.81042

>  <RMSD>
5.742

$$$$
1q8n_lig
 OpenBabel11021811403D
libRbt.so/2013.1/901 2013/11/27
 25 27  0  0  0  0  0  0  0  0999 V2000
    0.3350   -0.4424    0.3386 C   0  0  0  0  0  0  0  0  0  0  0  0
    0.8357   -1.9935    0.2434 C   0  0  0  0  0  0  0  0  0  0  0  0
   -1.1827    1.6939    5.6822 N   0  0  0  0  0  0  0  0  0  0  0  0
    0.6811   -2.8917    1.2455 C   0  0  0  0  0  0  0  0  0  0  0  0
    0.2353    3.0161   -4.5544 N   0  0  0  0  0  0  0  0  0  0  0  0
    1.1553   -4.2893    1.1207 C   0  0  0  0  0  0  0  0  0  0  0  0
    1.7596   -4.6939   -0.0199 C   0  0  0  0  0  0  0  0  0  0  0  0
    1.9286   -3.7541   -1.1035 C   0  0  0  0  0  0  0  0  0  0  0  0
    1.4984   -2.4962   -0.9781 C   0  0  0  0  0  0  0  0  0  0  0  0
   -0.0813    0.1480    1.8009 C   0  0  0  0  0  0  0  0  0  0  0  0
   -0.6387    1.3700    1.9288 C   0  0  0  0  0  0  0  0  0  0  0  0
   -1.0250    1.9250    3.2557 C   0  0  0  0  0  0  0  0  0  0  0  0
   -0.8233    1.1975    4.3868 C   0  0  0  0  0  0  0  0  0  0  0  0
   -0.2168   -0.1414    4.2624 C   0  0  0  0  0  0  0  0  0  0  0  0
    0.1268   -0.6249    3.0604 C   0  0  0  0  0  0  0  0  0  0  0  0
    0.2420    0.5281   -1.0024 C   0  0  0  0  0  0  0  0  0  0  0  0
    1.4953    0.8939   -1.7486 C   0  0  0  0  0  0  0  0  0  0  0  0
    1.4883    1.6632   -2.8407 C   0  0  0  0  0  0  0  0  0  0  0  0
    0.2321    2.2008   -3.3760 C   0  0  0  0  0  0  0  0  0  0  0  0
   -0.9213    1.9077   -2.7403 C   0  0  0  0  0  0  0  0  0  0  0  0
   -0.9259    1.0427   -1.5128 C   0  0  0  0  0  0  0  0  0  0  0  0
   -0.8996    0.9690    6.8834 C   0  0  0  0  0  0  0  0  0  0  0  0
   -1.8468    2.9539    5.8105 C   0  0  0  0  0  0  0  0  0  0  0  0
    0.9760    4.2445   -4.5844 C   0  0  0  0  0  0  0  0  0  0  0  0
   -0.4957    2.6258   -5.7388 C   0  0  0  0  0  0  0  0  0  0  0  0
  1  2  1  0  0  0  0
  1 10  1  0  0  0  0
  1 16  1  0  0  0  0
  2  4  2  0  0  0  0
  2  9  1  0  0  0  0
  4  6  1  0  0  0  0
  6  7  2  0  0  0  0
  7  8  1  0  0  0  0
  8  9  2  0  0  0  0
 10 11  2  0  0  0  0
 10 15  1  0  0  0  0
 11 12  1  0  0  0  0
 12 13  2  0  0  0  0
 13  3  1  0  0  0  0
 13 14  1  0  0  0  0
 14 15  2  0  0  0  0
 16 17  2  0  0  0  0
 16 21  1  0  0  0  0
 17 18  1  0  0  0  0
 18 19  2  0  0  0  0
 19  5  1  0  0  0  0
 19 20  1  0  0  0  0
 20 21  2  0  0  0  0
 22  3  1  0  0  0  0
 23  3  1  0  0  0  0
 24  5  1  0  0  0  0
 25  5  1  0  0  0  0
M  END
>  <CHROM.1>
13.38843903,-172.74165486,-64.73975174,-176.12080005,-59.58654566,0.13702578
0.35141229,0.39840709,-1.96780122,1.22340107,-1.04559830

>  <Name>
1q8n_lig

>  <RI>
0

>  <Rbt.Current_Directory>
/home/itssahil/PROJECTS/Mol_Feturizer/New_Systems/rnas/1q8n

>  <Rbt.Executable>
rbdock ($Id: //depot/dev/client3/rdock/2013.1/src/exe/rbdock.cxx#4 $)

>  <Rbt.Library>
libRbt.so (2013.1, Build901 2013/11/27)

>  <Rbt.Parameter_File>
/export/apps/rDock/src/rDock_2013.1_src/data/scripts/dock_solv.prm

>  <Rbt.Receptor>
prm/pocket_docking_5.prm

>  <SCORE>
-42.5786

>  <SCORE.INTER>
-45.2037

>  <SCORE.INTER.CONST>
1

>  <SCORE.INTER.POLAR>
0

>  <SCORE.INTER.ROT>
5

>  <SCORE.INTER.SOLV>
9.22068

>  <SCORE.INTER.VDW>
-40.1427

>  <SCORE.INTER.norm>
-1.80815

>  <SCORE.INTRA>
2.62515

>  <SCORE.INTRA.DIHEDRAL>
9.57728

>  <SCORE.INTRA.DIHEDRAL.0>
2.1627

>  <SCORE.INTRA.POLAR>
0

>  <SCORE.INTRA.POLAR.0>
0

>  <SCORE.INTRA.REPUL>
0

>  <SCORE.INTRA.REPUL.0>
0

>  <SCORE.INTRA.SOLV>
0.0248541

>  <SCORE.INTRA.SOLV.lig_0>
-5.95779

>  <SCORE.INTRA.VDW>
-2.17592

>  <SCORE.INTRA.VDW.0>
3.81702

>  <SCORE.INTRA.norm>
0.105006

>  <SCORE.RESTR>
0

>  <SCORE.RESTR.CAVITY>
0

>  <SCORE.RESTR.norm>
0

>  <SCORE.SYSTEM>
0

>  <SCORE.SYSTEM.CONST>
0

>  <SCORE.SYSTEM.DIHEDRAL>
0

>  <SCORE.SYSTEM.SOLV>
0

>  <SCORE.SYSTEM.norm>
0

>  <SCORE.heavy>
25

>  <SCORE.norm>
-1.70314

>  <RMSD>
5.743

$$$$
1q8n_lig
 OpenBabel11021811403D
libRbt.so/2013.1/901 2013/11/27
 25 27  0  0  0  0  0  0  0  0999 V2000
    0.4726   -0.2780    0.3715 C   0  0  0  0  0  0  0  0  0  0  0  0
    0.9459   -1.8297    0.1875 C   0  0  0  0  0  0  0  0  0  0  0  0
    0.4635    3.2425   -4.4272 N   0  0  0  0  0  0  0  0  0  0  0  0
    0.8136   -2.7709    1.1527 C   0  0  0  0  0  0  0  0  0  0  0  0
   -1.0810    1.7240    5.8021 N   0  0  0  0  0  0  0  0  0  0  0  0
    1.2617   -4.1676    0.9470 C   0  0  0  0  0  0  0  0  0  0  0  0
    1.8184   -4.5274   -0.2322 C   0  0  0  0  0  0  0  0  0  0  0  0
    1.9627   -3.5411   -1.2773 C   0  0  0  0  0  0  0  0  0  0  0  0
    1.5565   -2.2845   -1.0790 C   0  0  0  0  0  0  0  0  0  0  0  0
    0.4706    0.6911   -0.9404 C   0  0  0  0  0  0  0  0  0  0  0  0
    0.8678    1.9780   -0.8598 C   0  0  0  0  0  0  0  0  0  0  0  0
    0.8725    2.8772   -2.0470 C   0  0  0  0  0  0  0  0  0  0  0  0
    0.4720    2.4110   -3.2601 C   0  0  0  0  0  0  0  0  0  0  0  0
    0.0371    1.0053   -3.3641 C   0  0  0  0  0  0  0  0  0  0  0  0
    0.0373    0.2102   -2.2851 C   0  0  0  0  0  0  0  0  0  0  0  0
    0.0028    0.3220    1.8439 C   0  0  0  0  0  0  0  0  0  0  0  0
    0.3747   -0.4114    3.1030 C   0  0  0  0  0  0  0  0  0  0  0  0
    0.0358    0.0231    4.3199 C   0  0  0  0  0  0  0  0  0  0  0  0
   -0.7323    1.2617    4.4913 C   0  0  0  0  0  0  0  0  0  0  0  0
   -1.0969    1.9554    3.3930 C   0  0  0  0  0  0  0  0  0  0  0  0
   -0.7205    1.4776    2.0201 C   0  0  0  0  0  0  0  0  0  0  0  0
   -0.2468    2.8823   -5.6165 C   0  0  0  0  0  0  0  0  0  0  0  0
    1.1791    4.4806   -4.4331 C   0  0  0  0  0  0  0  0  0  0  0  0
   -1.9274    2.8709    5.9652 C   0  0  0  0  0  0  0  0  0  0  0  0
   -0.5997    1.0514    6.9875 C   0  0  0  0  0  0  0  0  0  0  0  0
  1  2  1  0  0  0  0
  1 10  1  0  0  0  0
  1 16  1  0  0  0  0
  2  4  2  0  0  0  0
  2  9  1  0  0  0  0
  4  6  1  0  0  0  0
  6  7  2  0  0  0  0
  7  8  1  0  0  0  0
  8  9  2  0  0  0  0
 10 11  2  0  0  0  0
 10 15  1  0  0  0  0
 11 12  1  0  0  0  0
 12 13  2  0  0  0  0
 13  3  1  0  0  0  0
 13 14  1  0  0  0  0
 14 15  2  0  0  0  0
 16 17  2  0  0  0  0
 16 21  1  0  0  0  0
 17 18  1  0  0  0  0
 18 19  2  0  0  0  0
 19  5  1  0  0  0  0
 19 20  1  0  0  0  0
 20 21  2  0  0  0  0
 22  3  1  0  0  0  0
 23  3  1  0  0  0  0
 24  5  1  0  0  0  0
 25  5  1  0  0  0  0
M  END
>  <CHROM.1>
-170.48323604,-140.63432480,17.86157134,-164.41808258,-174.67241402,0.27010300
0.49467249,0.43874595,-2.05608236,1.25774408,-0.97447391

>  <Name>
1q8n_lig

>  <RI>
0

>  <Rbt.Current_Directory>
/home/itssahil/PROJECTS/Mol_Feturizer/New_Systems/rnas/1q8n

>  <Rbt.Executable>
rbdock ($Id: //depot/dev/client3/rdock/2013.1/src/exe/rbdock.cxx#4 $)

>  <Rbt.Library>
libRbt.so (2013.1, Build901 2013/11/27)

>  <Rbt.Parameter_File>
/export/apps/rDock/src/rDock_2013.1_src/data/scripts/dock_solv.prm

>  <Rbt.Receptor>
prm/pocket_docking_5.prm

>  <SCORE>
-45.6263

>  <SCORE.INTER>
-46.2753

>  <SCORE.INTER.CONST>
1

>  <SCORE.INTER.POLAR>
0

>  <SCORE.INTER.ROT>
5

>  <SCORE.INTER.SOLV>
9.35824

>  <SCORE.INTER.VDW>
-40.9029

>  <SCORE.INTER.norm>
-1.85101

>  <SCORE.INTRA>
0.648922

>  <SCORE.INTRA.DIHEDRAL>
1.03113

>  <SCORE.INTRA.DIHEDRAL.0>
2.1627

>  <SCORE.INTRA.POLAR>
0

>  <SCORE.INTRA.POLAR.0>
0

>  <SCORE.INTRA.REPUL>
0

>  <SCORE.INTRA.REPUL.0>
0

>  <SCORE.INTRA.SOLV>
0.0437888

>  <SCORE.INTRA.SOLV.lig_0>
-5.95779

>  <SCORE.INTRA.VDW>
0.111463

>  <SCORE.INTRA.VDW.0>
3.81702

>  <SCORE.INTRA.norm>
0.0259569

>  <SCORE.RESTR>
0

>  <SCORE.RESTR.CAVITY>
0

>  <SCORE.RESTR.norm>
0

>  <SCORE.SYSTEM>
0

>  <SCORE.SYSTEM.CONST>
0

>  <SCORE.SYSTEM.DIHEDRAL>
0

>  <SCORE.SYSTEM.SOLV>
0

>  <SCORE.SYSTEM.norm>
0

>  <SCORE.heavy>
25

>  <SCORE.norm>
-1.82505

>  <RMSD>
5.743

$$$$
1q8n_lig
 OpenBabel11021811403D
libRbt.so/2013.1/901 2013/11/27
 25 27  0  0  0  0  0  0  0  0999 V2000
    0.5748   -0.2317    0.2902 C   0  0  0  0  0  0  0  0  0  0  0  0
    0.9965   -1.8012    0.1343 C   0  0  0  0  0  0  0  0  0  0  0  0
   -1.0434    1.7179    5.6755 N   0  0  0  0  0  0  0  0  0  0  0  0
    0.8551   -2.7150    1.1241 C   0  0  0  0  0  0  0  0  0  0  0  0
    0.5253    3.3481   -4.5157 N   0  0  0  0  0  0  0  0  0  0  0  0
    1.2559   -4.1294    0.9433 C   0  0  0  0  0  0  0  0  0  0  0  0
    1.7774   -4.5338   -0.2376 C   0  0  0  0  0  0  0  0  0  0  0  0
    1.9305   -3.5771   -1.3086 C   0  0  0  0  0  0  0  0  0  0  0  0
    1.5671   -2.3043   -1.1327 C   0  0  0  0  0  0  0  0  0  0  0  0
    0.1299    0.3073    1.7638 C   0  0  0  0  0  0  0  0  0  0  0  0
   -0.6359    1.4094    1.9036 C   0  0  0  0  0  0  0  0  0  0  0  0
   -1.0515    1.9159    3.2410 C   0  0  0  0  0  0  0  0  0  0  0  0
   -0.6635    1.2649    4.3701 C   0  0  0  0  0  0  0  0  0  0  0  0
    0.1722    0.0571    4.2330 C   0  0  0  0  0  0  0  0  0  0  0  0
    0.5389   -0.3840    3.0216 C   0  0  0  0  0  0  0  0  0  0  0  0
    0.5888    0.8078   -1.0013 C   0  0  0  0  0  0  0  0  0  0  0  0
    0.2702    0.2936   -2.3781 C   0  0  0  0  0  0  0  0  0  0  0  0
    0.2548    1.0796   -3.4581 C   0  0  0  0  0  0  0  0  0  0  0  0
    0.5553    2.5122   -3.3521 C   0  0  0  0  0  0  0  0  0  0  0  0
    0.8538    3.0238   -2.1398 C   0  0  0  0  0  0  0  0  0  0  0  0
    0.8726    2.1502   -0.9186 C   0  0  0  0  0  0  0  0  0  0  0  0
   -1.8834    2.8598    5.8733 C   0  0  0  0  0  0  0  0  0  0  0  0
   -0.5838    1.0249    6.8390 C   0  0  0  0  0  0  0  0  0  0  0  0
   -0.2316    2.9571   -5.6701 C   0  0  0  0  0  0  0  0  0  0  0  0
    1.2450    4.6009   -4.5581 C   0  0  0  0  0  0  0  0  0  0  0  0
  1  2  1  0  0  0  0
  1 10  1  0  0  0  0
  1 16  1  0  0  0  0
  2  4  2  0  0  0  0
  2  9  1  0  0  0  0
  4  6  1  0  0  0  0
  6  7  2  0  0  0  0
  7  8  1  0  0  0  0
  8  9  2  0  0  0  0
 10 11  2  0  0  0  0
 10 15  1  0  0  0  0
 11 12  1  0  0  0  0
 12 13  2  0  0  0  0
 13  3  1  0  0  0  0
 13 14  1  0  0  0  0
 14 15  2  0  0  0  0
 16 17  2  0  0  0  0
 16 21  1  0  0  0  0
 17 18  1  0  0  0  0
 18 19  2  0  0  0  0
 19  5  1  0  0  0  0
 19 20  1  0  0  0  0
 20 21  2  0  0  0  0
 22  3  1  0  0  0  0
 23  3  1  0  0  0  0
 24  5  1  0  0  0  0
 25  5  1  0  0  0  0
M  END
>  <CHROM.1>
7.66997291,-157.55592399,32.41486854,1.74757077,22.35201842,0.33415328,0.53462023
0.35716760,-2.04570745,1.26181744,-0.94999753

>  <Name>
1q8n_lig

>  <RI>
0

>  <Rbt.Current_Directory>
/home/itssahil/PROJECTS/Mol_Feturizer/New_Systems/rnas/1q8n

>  <Rbt.Executable>
rbdock ($Id: //depot/dev/client3/rdock/2013.1/src/exe/rbdock.cxx#4 $)

>  <Rbt.Library>
libRbt.so (2013.1, Build901 2013/11/27)

>  <Rbt.Parameter_File>
/export/apps/rDock/src/rDock_2013.1_src/data/scripts/dock_solv.prm

>  <Rbt.Receptor>
prm/blind_docking_60.prm

>  <SCORE>
-45.7018

>  <SCORE.INTER>
-46.6101

>  <SCORE.INTER.CONST>
1

>  <SCORE.INTER.POLAR>
0

>  <SCORE.INTER.ROT>
5

>  <SCORE.INTER.SOLV>
9.44944

>  <SCORE.INTER.VDW>
-41.1566

>  <SCORE.INTER.norm>
-1.8644

>  <SCORE.INTRA>
0.908339

>  <SCORE.INTRA.DIHEDRAL>
1.8585

>  <SCORE.INTRA.DIHEDRAL.0>
2.1627

>  <SCORE.INTRA.POLAR>
0

>  <SCORE.INTRA.POLAR.0>
0

>  <SCORE.INTRA.REPUL>
0

>  <SCORE.INTRA.REPUL.0>
0

>  <SCORE.INTRA.SOLV>
0.0492379

>  <SCORE.INTRA.SOLV.lig_0>
-5.95779

>  <SCORE.INTRA.VDW>
-0.0455324

>  <SCORE.INTRA.VDW.0>
3.81702

>  <SCORE.INTRA.norm>
0.0363336

>  <SCORE.RESTR>
0

>  <SCORE.RESTR.CAVITY>
0

>  <SCORE.RESTR.norm>
0

>  <SCORE.SYSTEM>
0

>  <SCORE.SYSTEM.CONST>
0

>  <SCORE.SYSTEM.DIHEDRAL>
0

>  <SCORE.SYSTEM.SOLV>
0

>  <SCORE.SYSTEM.norm>
0

>  <SCORE.heavy>
25

>  <SCORE.norm>
-1.82807

>  <RMSD>
5.747

$$$$
1q8n_lig
 OpenBabel11021811413D
libRbt.so/2013.1/901 2013/11/27
 25 27  0  0  0  0  0  0  0  0999 V2000
    0.6046   -0.2700    0.2905 C   0  0  0  0  0  0  0  0  0  0  0  0
    1.0310   -1.8371    0.1235 C   0  0  0  0  0  0  0  0  0  0  0  0
   -1.0104    1.6763    5.6780 N   0  0  0  0  0  0  0  0  0  0  0  0
    0.8490   -2.7683    1.0902 C   0  0  0  0  0  0  0  0  0  0  0  0
    0.5313    3.3362   -4.4953 N   0  0  0  0  0  0  0  0  0  0  0  0
    1.2557   -4.1798    0.9004 C   0  0  0  0  0  0  0  0  0  0  0  0
    1.8241   -4.5638   -0.2656 C   0  0  0  0  0  0  0  0  0  0  0  0
    2.0211   -3.5883   -1.3122 C   0  0  0  0  0  0  0  0  0  0  0  0
    1.6520   -2.3182   -1.1282 C   0  0  0  0  0  0  0  0  0  0  0  0
    0.1635    0.2587    1.7690 C   0  0  0  0  0  0  0  0  0  0  0  0
    0.5559   -0.3853    2.8878 C   0  0  0  0  0  0  0  0  0  0  0  0
    0.1628    0.0830    4.2457 C   0  0  0  0  0  0  0  0  0  0  0  0
   -0.6118    1.1914    4.3897 C   0  0  0  0  0  0  0  0  0  0  0  0
   -1.0468    1.9073    3.1755 C   0  0  0  0  0  0  0  0  0  0  0  0
   -0.6854    1.4710    1.9608 C   0  0  0  0  0  0  0  0  0  0  0  0
    0.6102    0.7773   -0.9948 C   0  0  0  0  0  0  0  0  0  0  0  0
    0.3251    0.2633   -2.3790 C   0  0  0  0  0  0  0  0  0  0  0  0
    0.3049    1.0551   -3.4546 C   0  0  0  0  0  0  0  0  0  0  0  0
    0.5662    2.4944   -3.3362 C   0  0  0  0  0  0  0  0  0  0  0  0
    0.8336    3.0063   -2.1168 C   0  0  0  0  0  0  0  0  0  0  0  0
    0.8576    2.1261   -0.9004 C   0  0  0  0  0  0  0  0  0  0  0  0
   -0.6432    1.0119    6.8913 C   0  0  0  0  0  0  0  0  0  0  0  0
   -1.8015    2.8628    5.7863 C   0  0  0  0  0  0  0  0  0  0  0  0
   -0.2223    2.9463   -5.6522 C   0  0  0  0  0  0  0  0  0  0  0  0
    1.2426    4.5940   -4.5307 C   0  0  0  0  0  0  0  0  0  0  0  0
  1  2  1  0  0  0  0
  1 10  1  0  0  0  0
  1 16  1  0  0  0  0
  2  4  2  0  0  0  0
  2  9  1  0  0  0  0
  4  6  1  0  0  0  0
  6  7  2  0  0  0  0
  7  8  1  0  0  0  0
  8  9  2  0  0  0  0
 10 11  2  0  0  0  0
 10 15  1  0  0  0  0
 11 12  1  0  0  0  0
 12 13  2  0  0  0  0
 13  3  1  0  0  0  0
 13 14  1  0  0  0  0
 14 15  2  0  0  0  0
 16 17  2  0  0  0  0
 16 21  1  0  0  0  0
 17 18  1  0  0  0  0
 18 19  2  0  0  0  0
 19  5  1  0  0  0  0
 19 20  1  0  0  0  0
 20 21  2  0  0  0  0
 22  3  1  0  0  0  0
 23  3  1  0  0  0  0
 24  5  1  0  0  0  0
 25  5  1  0  0  0  0
M  END
>  <CHROM.1>
10.30688933,22.55363180,30.73906030,-1.31258824,23.72698424,0.35362599,0.51510566
0.35249754,-2.04659107,1.25860007,-0.95196520

>  <Name>
1q8n_lig

>  <RI>
0

>  <Rbt.Current_Directory>
/home/itssahil/PROJECTS/Mol_Feturizer/New_Systems/rnas/1q8n

>  <Rbt.Executable>
rbdock ($Id: //depot/dev/client3/rdock/2013.1/src/exe/rbdock.cxx#4 $)

>  <Rbt.Library>
libRbt.so (2013.1, Build901 2013/11/27)

>  <Rbt.Parameter_File>
/export/apps/rDock/src/rDock_2013.1_src/data/scripts/dock_solv.prm

>  <Rbt.Receptor>
prm/pocket_docking_6.prm

>  <SCORE>
-45.8742

>  <SCORE.INTER>
-46.8546

>  <SCORE.INTER.CONST>
1

>  <SCORE.INTER.POLAR>
0

>  <SCORE.INTER.ROT>
5

>  <SCORE.INTER.SOLV>
9.46262

>  <SCORE.INTER.VDW>
-41.3239

>  <SCORE.INTER.norm>
-1.87418

>  <SCORE.INTRA>
0.980405

>  <SCORE.INTRA.DIHEDRAL>
2.07262

>  <SCORE.INTRA.DIHEDRAL.0>
2.1627

>  <SCORE.INTRA.POLAR>
0

>  <SCORE.INTRA.POLAR.0>
0

>  <SCORE.INTRA.REPUL>
0

>  <SCORE.INTRA.REPUL.0>
0

>  <SCORE.INTRA.SOLV>
0.0490799

>  <SCORE.INTRA.SOLV.lig_0>
-5.95779

>  <SCORE.INTRA.VDW>
-0.080445

>  <SCORE.INTRA.VDW.0>
3.81702

>  <SCORE.INTRA.norm>
0.0392162

>  <SCORE.RESTR>
0

>  <SCORE.RESTR.CAVITY>
0

>  <SCORE.RESTR.norm>
0

>  <SCORE.SYSTEM>
0

>  <SCORE.SYSTEM.CONST>
0

>  <SCORE.SYSTEM.DIHEDRAL>
0

>  <SCORE.SYSTEM.SOLV>
0

>  <SCORE.SYSTEM.norm>
0

>  <SCORE.heavy>
25

>  <SCORE.norm>
-1.83497

>  <RMSD>
5.747

$$$$
1q8n_lig
 OpenBabel11021811413D
libRbt.so/2013.1/901 2013/11/27
 25 27  0  0  0  0  0  0  0  0999 V2000
    0.3883   -0.4026    0.3579 C   0  0  0  0  0  0  0  0  0  0  0  0
    0.8834   -1.9514    0.2108 C   0  0  0  0  0  0  0  0  0  0  0  0
    0.2709    3.0033   -4.5214 N   0  0  0  0  0  0  0  0  0  0  0  0
    1.4597   -2.4487   -0.9097 C   0  0  0  0  0  0  0  0  0  0  0  0
   -1.1799    1.6978    5.7469 N   0  0  0  0  0  0  0  0  0  0  0  0
    1.8898   -3.8629   -1.0040 C   0  0  0  0  0  0  0  0  0  0  0  0
    1.7098   -4.6912    0.0502 C   0  0  0  0  0  0  0  0  0  0  0  0
    1.1034   -4.1797    1.2571 C   0  0  0  0  0  0  0  0  0  0  0  0
    0.7181   -2.9032    1.3292 C   0  0  0  0  0  0  0  0  0  0  0  0
    0.3614    0.5315   -0.9789 C   0  0  0  0  0  0  0  0  0  0  0  0
    1.4957    0.8327   -1.6444 C   0  0  0  0  0  0  0  0  0  0  0  0
    1.4901    1.6839   -2.8664 C   0  0  0  0  0  0  0  0  0  0  0  0
    0.3200    2.1823   -3.3479 C   0  0  0  0  0  0  0  0  0  0  0  0
   -0.9287    1.8596   -2.6320 C   0  0  0  0  0  0  0  0  0  0  0  0
   -0.9054    1.0934   -1.5325 C   0  0  0  0  0  0  0  0  0  0  0  0
   -0.0792    0.2289    1.8178 C   0  0  0  0  0  0  0  0  0  0  0  0
    0.1579   -0.5527    3.0806 C   0  0  0  0  0  0  0  0  0  0  0  0
   -0.1858   -0.0970    4.2883 C   0  0  0  0  0  0  0  0  0  0  0  0
   -0.8254    1.2145    4.4454 C   0  0  0  0  0  0  0  0  0  0  0  0
   -1.0664    1.9541    3.3430 C   0  0  0  0  0  0  0  0  0  0  0  0
   -0.6831    1.4529    1.9803 C   0  0  0  0  0  0  0  0  0  0  0  0
    0.9564    4.2568   -4.6059 C   0  0  0  0  0  0  0  0  0  0  0  0
   -0.4799    2.5812   -5.6631 C   0  0  0  0  0  0  0  0  0  0  0  0
   -0.8083    0.9607    6.9204 C   0  0  0  0  0  0  0  0  0  0  0  0
   -1.9103    2.9339    5.9149 C   0  0  0  0  0  0  0  0  0  0  0  0
  1  2  1  0  0  0  0
  1 10  1  0  0  0  0
  1 16  1  0  0  0  0
  2  4  2  0  0  0  0
  2  9  1  0  0  0  0
  4  6  1  0  0  0  0
  6  7  2  0  0  0  0
  7  8  1  0  0  0  0
  8  9  2  0  0  0  0
 10 11  2  0  0  0  0
 10 15  1  0  0  0  0
 11 12  1  0  0  0  0
 12 13  2  0  0  0  0
 13  3  1  0  0  0  0
 13 14  1  0  0  0  0
 14 15  2  0  0  0  0
 16 17  2  0  0  0  0
 16 21  1  0  0  0  0
 17 18  1  0  0  0  0
 18 19  2  0  0  0  0
 19  5  1  0  0  0  0
 19 20  1  0  0  0  0
 20 21  2  0  0  0  0
 22  3  1  0  0  0  0
 23  3  1  0  0  0  0
 24  5  1  0  0  0  0
 25  5  1  0  0  0  0
M  END
>  <CHROM.1>
10.21048968,-63.70145366,10.00510604,-60.54684825,5.53206052,0.14518484,0.36346167
0.44755176,-1.16849802,-1.22453120,2.09673719

>  <Name>
1q8n_lig

>  <RI>
0

>  <Rbt.Current_Directory>
/home/itssahil/PROJECTS/Mol_Feturizer/New_Systems/rnas/1q8n

>  <Rbt.Executable>
rbdock ($Id: //depot/dev/client3/rdock/2013.1/src/exe/rbdock.cxx#4 $)

>  <Rbt.Library>
libRbt.so (2013.1, Build901 2013/11/27)

>  <Rbt.Parameter_File>
/export/apps/rDock/src/rDock_2013.1_src/data/scripts/dock_solv.prm

>  <Rbt.Receptor>
prm/pocket_docking_6.prm

>  <SCORE>
-42.1944

>  <SCORE.INTER>
-44.8705

>  <SCORE.INTER.CONST>
1

>  <SCORE.INTER.POLAR>
0

>  <SCORE.INTER.ROT>
5

>  <SCORE.INTER.SOLV>
9.08945

>  <SCORE.INTER.VDW>
-39.8768

>  <SCORE.INTER.norm>
-1.79482

>  <SCORE.INTRA>
2.67616

>  <SCORE.INTRA.DIHEDRAL>
9.81948

>  <SCORE.INTRA.DIHEDRAL.0>
2.1627

>  <SCORE.INTRA.POLAR>
0

>  <SCORE.INTRA.POLAR.0>
0

>  <SCORE.INTRA.REPUL>
0

>  <SCORE.INTRA.REPUL.0>
0

>  <SCORE.INTRA.SOLV>
0.0263051

>  <SCORE.INTRA.SOLV.lig_0>
-5.95779

>  <SCORE.INTRA.VDW>
-2.24673

>  <SCORE.INTRA.VDW.0>
3.81702

>  <SCORE.INTRA.norm>
0.107046

>  <SCORE.RESTR>
0

>  <SCORE.RESTR.CAVITY>
0

>  <SCORE.RESTR.norm>
0

>  <SCORE.SYSTEM>
0

>  <SCORE.SYSTEM.CONST>
0

>  <SCORE.SYSTEM.DIHEDRAL>
0

>  <SCORE.SYSTEM.SOLV>
0

>  <SCORE.SYSTEM.norm>
0

>  <SCORE.heavy>
25

>  <SCORE.norm>
-1.68778

>  <RMSD>
5.748

$$$$
1q8n_lig
 OpenBabel11021811403D
libRbt.so/2013.1/901 2013/11/27
 25 27  0  0  0  0  0  0  0  0999 V2000
    0.0332    0.9862    0.4709 C   0  0  0  0  0  0  0  0  0  0  0  0
   -0.6303    1.7704    1.7398 C   0  0  0  0  0  0  0  0  0  0  0  0
    0.7643    3.9557   -4.6349 N   0  0  0  0  0  0  0  0  0  0  0  0
   -1.3102    2.9364    1.6254 C   0  0  0  0  0  0  0  0  0  0  0  0
    1.6514   -4.7519    1.0782 N   0  0  0  0  0  0  0  0  0  0  0  0
   -1.8923    3.6191    2.8039 C   0  0  0  0  0  0  0  0  0  0  0  0
   -1.7501    3.0739    4.0338 C   0  0  0  0  0  0  0  0  0  0  0  0
   -1.0346    1.8276    4.1773 C   0  0  0  0  0  0  0  0  0  0  0  0
   -0.5127    1.2227    3.1073 C   0  0  0  0  0  0  0  0  0  0  0  0
    0.2339    1.8046   -0.9256 C   0  0  0  0  0  0  0  0  0  0  0  0
    0.6791    3.0782   -0.9320 C   0  0  0  0  0  0  0  0  0  0  0  0
    0.8682    3.8407   -2.1972 C   0  0  0  0  0  0  0  0  0  0  0  0
    0.5939    3.2579   -3.3949 C   0  0  0  0  0  0  0  0  0  0  0  0
    0.1084    1.8649   -3.4039 C   0  0  0  0  0  0  0  0  0  0  0  0
   -0.0579    1.1938   -2.2556 C   0  0  0  0  0  0  0  0  0  0  0  0
    0.4984   -0.6019    0.5731 C   0  0  0  0  0  0  0  0  0  0  0  0
    0.5866   -1.2698    1.9177 C   0  0  0  0  0  0  0  0  0  0  0  0
    0.9452   -2.5477    2.0682 C   0  0  0  0  0  0  0  0  0  0  0  0
    1.2784   -3.3792    0.9057 C   0  0  0  0  0  0  0  0  0  0  0  0
    1.2211   -2.8267   -0.3239 C   0  0  0  0  0  0  0  0  0  0  0  0
    0.8179   -1.3917   -0.5055 C   0  0  0  0  0  0  0  0  0  0  0  0
    1.5923    5.1174   -4.7501 C   0  0  0  0  0  0  0  0  0  0  0  0
    0.0977    3.4984   -5.8147 C   0  0  0  0  0  0  0  0  0  0  0  0
    2.1709   -5.2099    2.3347 C   0  0  0  0  0  0  0  0  0  0  0  0
    1.5109   -5.7083    0.0034 C   0  0  0  0  0  0  0  0  0  0  0  0
  1  2  1  0  0  0  0
  1 10  1  0  0  0  0
  1 16  1  0  0  0  0
  2  4  2  0  0  0  0
  2  9  1  0  0  0  0
  4  6  1  0  0  0  0
  6  7  2  0  0  0  0
  7  8  1  0  0  0  0
  8  9  2  0  0  0  0
 10 11  2  0  0  0  0
 10 15  1  0  0  0  0
 11 12  1  0  0  0  0
 12 13  2  0  0  0  0
 13  3  1  0  0  0  0
 13 14  1  0  0  0  0
 14 15  2  0  0  0  0
 16 17  2  0  0  0  0
 16 21  1  0  0  0  0
 17 18  1  0  0  0  0
 18 19  2  0  0  0  0
 19  5  1  0  0  0  0
 19 20  1  0  0  0  0
 20 21  2  0  0  0  0
 22  3  1  0  0  0  0
 23  3  1  0  0  0  0
 24  5  1  0  0  0  0
 25  5  1  0  0  0  0
M  END
>  <CHROM.1>
16.38570255,41.76254361,-12.92515431,19.52494459,-22.63512316,0.36739617
0.58001302,-0.14802481,1.79739387,1.19109404,-0.80660463

>  <Name>
1q8n_lig

>  <RI>
0

>  <Rbt.Current_Directory>
/home/itssahil/PROJECTS/Mol_Feturizer/New_Systems/rnas/1q8n

>  <Rbt.Executable>
rbdock ($Id: //depot/dev/client3/rdock/2013.1/src/exe/rbdock.cxx#4 $)

>  <Rbt.Library>
libRbt.so (2013.1, Build901 2013/11/27)

>  <Rbt.Parameter_File>
/export/apps/rDock/src/rDock_2013.1_src/data/scripts/dock_solv.prm

>  <Rbt.Receptor>
prm/pocket_docking_4.prm

>  <SCORE>
-47.7315

>  <SCORE.INTER>
-49.5973

>  <SCORE.INTER.CONST>
1

>  <SCORE.INTER.POLAR>
0

>  <SCORE.INTER.ROT>
5

>  <SCORE.INTER.SOLV>
11.5572

>  <SCORE.INTER.VDW>
-43.8506

>  <SCORE.INTER.norm>
-1.98389

>  <SCORE.INTRA>
1.08077

>  <SCORE.INTRA.DIHEDRAL>
3.32521

>  <SCORE.INTRA.DIHEDRAL.0>
2.1627

>  <SCORE.INTRA.POLAR>
0

>  <SCORE.INTRA.POLAR.0>
0

>  <SCORE.INTRA.REPUL>
0

>  <SCORE.INTRA.REPUL.0>
0

>  <SCORE.INTRA.SOLV>
0.0458795

>  <SCORE.INTRA.SOLV.lig_0>
-5.95779

>  <SCORE.INTRA.VDW>
-0.604773

>  <SCORE.INTRA.VDW.0>
3.81702

>  <SCORE.INTRA.norm>
0.0432309

>  <SCORE.RESTR>
0.78508

>  <SCORE.RESTR.CAVITY>
0.78508

>  <SCORE.RESTR.norm>
0.0314032

>  <SCORE.SYSTEM>
0

>  <SCORE.SYSTEM.CONST>
0

>  <SCORE.SYSTEM.DIHEDRAL>
0

>  <SCORE.SYSTEM.SOLV>
0

>  <SCORE.SYSTEM.norm>
0

>  <SCORE.heavy>
25

>  <SCORE.norm>
-1.90926

>  <RMSD>
5.749

$$$$
1q8n_lig
 OpenBabel11021811403D
libRbt.so/2013.1/901 2013/11/27
 25 27  0  0  0  0  0  0  0  0999 V2000
    0.6031   -0.2478    0.3145 C   0  0  0  0  0  0  0  0  0  0  0  0
    1.0321   -1.8152    0.1567 C   0  0  0  0  0  0  0  0  0  0  0  0
   -1.0045    1.6927    5.7063 N   0  0  0  0  0  0  0  0  0  0  0  0
    0.8489   -2.7417    1.1278 C   0  0  0  0  0  0  0  0  0  0  0  0
    0.5249    3.3301   -4.4923 N   0  0  0  0  0  0  0  0  0  0  0  0
    1.2579   -4.1536    0.9463 C   0  0  0  0  0  0  0  0  0  0  0  0
    1.8298   -4.5428   -0.2163 C   0  0  0  0  0  0  0  0  0  0  0  0
    2.0281   -3.5724   -1.2675 C   0  0  0  0  0  0  0  0  0  0  0  0
    1.6568   -2.3020   -1.0910 C   0  0  0  0  0  0  0  0  0  0  0  0
    0.1611    0.2887    1.7899 C   0  0  0  0  0  0  0  0  0  0  0  0
   -0.6092    1.3871    1.9328 C   0  0  0  0  0  0  0  0  0  0  0  0
   -1.0224    1.8913    3.2718 C   0  0  0  0  0  0  0  0  0  0  0  0
   -0.6273    1.2419    4.3993 C   0  0  0  0  0  0  0  0  0  0  0  0
    0.2135    0.0380    4.2588 C   0  0  0  0  0  0  0  0  0  0  0  0
    0.5778   -0.4011    3.0460 C   0  0  0  0  0  0  0  0  0  0  0  0
    0.6071    0.7919   -0.9769 C   0  0  0  0  0  0  0  0  0  0  0  0
    0.3258    0.2689   -2.3585 C   0  0  0  0  0  0  0  0  0  0  0  0
    0.3045    1.0544   -3.4387 C   0  0  0  0  0  0  0  0  0  0  0  0
    0.5609    2.4952   -3.3283 C   0  0  0  0  0  0  0  0  0  0  0  0
    0.8248    3.0150   -2.1115 C   0  0  0  0  0  0  0  0  0  0  0  0
    0.8499    2.1421   -0.8899 C   0  0  0  0  0  0  0  0  0  0  0  0
   -0.6085    1.0029    6.8961 C   0  0  0  0  0  0  0  0  0  0  0  0
   -1.8028    2.8696    5.8581 C   0  0  0  0  0  0  0  0  0  0  0  0
    1.2317    4.5784   -4.5116 C   0  0  0  0  0  0  0  0  0  0  0  0
   -0.2128    2.9402   -5.6727 C   0  0  0  0  0  0  0  0  0  0  0  0
  1  2  1  0  0  0  0
  1 10  1  0  0  0  0
  1 16  1  0  0  0  0
  2  4  2  0  0  0  0
  2  9  1  0  0  0  0
  4  6  1  0  0  0  0
  6  7  2  0  0  0  0
  7  8  1  0  0  0  0
  8  9  2  0  0  0  0
 10 11  2  0  0  0  0
 10 15  1  0  0  0  0
 11 12  1  0  0  0  0
 12 13  2  0  0  0  0
 13  3  1  0  0  0  0
 13 14  1  0  0  0  0
 14 15  2  0  0  0  0
 16 17  2  0  0  0  0
 16 21  1  0  0  0  0
 17 18  1  0  0  0  0
 18 19  2  0  0  0  0
 19  5  1  0  0  0  0
 19 20  1  0  0  0  0
 20 21  2  0  0  0  0
 22  3  1  0  0  0  0
 23  3  1  0  0  0  0
 24  5  1  0  0  0  0
 25  5  1  0  0  0  0
M  END
>  <CHROM.1>
10.45178874,-157.57824354,30.61301158,179.06508188,-156.69092209,0.36105316
0.51860582,0.38140005,-2.03359351,1.25889992,-0.96272872

>  <Name>
1q8n_lig

>  <RI>
0

>  <Rbt.Current_Directory>
/home/itssahil/PROJECTS/Mol_Feturizer/New_Systems/rnas/1q8n

>  <Rbt.Executable>
rbdock ($Id: //depot/dev/client3/rdock/2013.1/src/exe/rbdock.cxx#4 $)

>  <Rbt.Library>
libRbt.so (2013.1, Build901 2013/11/27)

>  <Rbt.Parameter_File>
/export/apps/rDock/src/rDock_2013.1_src/data/scripts/dock_solv.prm

>  <Rbt.Receptor>
prm/pocket_docking_5.prm

>  <SCORE>
-45.6062

>  <SCORE.INTER>
-46.5642

>  <SCORE.INTER.CONST>
1

>  <SCORE.INTER.POLAR>
0

>  <SCORE.INTER.ROT>
5

>  <SCORE.INTER.SOLV>
9.445

>  <SCORE.INTER.VDW>
-41.1245

>  <SCORE.INTER.norm>
-1.86257

>  <SCORE.INTRA>
0.958017

>  <SCORE.INTRA.DIHEDRAL>
2.00277

>  <SCORE.INTRA.DIHEDRAL.0>
2.1627

>  <SCORE.INTRA.POLAR>
0

>  <SCORE.INTRA.POLAR.0>
0

>  <SCORE.INTRA.REPUL>
0

>  <SCORE.INTRA.REPUL.0>
0

>  <SCORE.INTRA.SOLV>
0.0495969

>  <SCORE.INTRA.SOLV.lig_0>
-5.95779

>  <SCORE.INTRA.VDW>
-0.0681649

>  <SCORE.INTRA.VDW.0>
3.81702

>  <SCORE.INTRA.norm>
0.0383207

>  <SCORE.RESTR>
0

>  <SCORE.RESTR.CAVITY>
0

>  <SCORE.RESTR.norm>
0

>  <SCORE.SYSTEM>
0

>  <SCORE.SYSTEM.CONST>
0

>  <SCORE.SYSTEM.DIHEDRAL>
0

>  <SCORE.SYSTEM.SOLV>
0

>  <SCORE.SYSTEM.norm>
0

>  <SCORE.heavy>
25

>  <SCORE.norm>
-1.82425

>  <RMSD>
5.756

$$$$
1q8n_lig
 OpenBabel11021811413D
libRbt.so/2013.1/901 2013/11/27
 25 27  0  0  0  0  0  0  0  0999 V2000
    0.4075   -0.4765    0.3377 C   0  0  0  0  0  0  0  0  0  0  0  0
    0.9189   -2.0190    0.1801 C   0  0  0  0  0  0  0  0  0  0  0  0
    0.2206    2.9488   -4.5258 N   0  0  0  0  0  0  0  0  0  0  0  0
    1.5199   -2.4968   -0.9358 C   0  0  0  0  0  0  0  0  0  0  0  0
   -1.1579    1.5748    5.7464 N   0  0  0  0  0  0  0  0  0  0  0  0
    1.9641   -3.9060   -1.0403 C   0  0  0  0  0  0  0  0  0  0  0  0
    1.7721   -4.7494   -0.0002 C   0  0  0  0  0  0  0  0  0  0  0  0
    1.1392   -4.2586    1.2017 C   0  0  0  0  0  0  0  0  0  0  0  0
    0.7414   -2.9865    1.2830 C   0  0  0  0  0  0  0  0  0  0  0  0
    0.3615    0.4634   -0.9944 C   0  0  0  0  0  0  0  0  0  0  0  0
    1.4951    0.8855   -1.5920 C   0  0  0  0  0  0  0  0  0  0  0  0
    1.4721    1.7440   -2.8087 C   0  0  0  0  0  0  0  0  0  0  0  0
    0.2865    2.1253   -3.3549 C   0  0  0  0  0  0  0  0  0  0  0  0
   -0.9614    1.6696   -2.7138 C   0  0  0  0  0  0  0  0  0  0  0  0
   -0.9226    0.8988   -1.6179 C   0  0  0  0  0  0  0  0  0  0  0  0
   -0.0572    0.1430    1.8036 C   0  0  0  0  0  0  0  0  0  0  0  0
    0.1414   -0.6678    3.0545 C   0  0  0  0  0  0  0  0  0  0  0  0
   -0.2021   -0.2235    4.2665 C   0  0  0  0  0  0  0  0  0  0  0  0
   -0.8032    1.1040    4.4403 C   0  0  0  0  0  0  0  0  0  0  0  0
   -1.0089    1.8702    3.3489 C   0  0  0  0  0  0  0  0  0  0  0  0
   -0.6254    1.3819    1.9817 C   0  0  0  0  0  0  0  0  0  0  0  0
    0.9081    4.2007   -4.6189 C   0  0  0  0  0  0  0  0  0  0  0  0
   -0.5497    2.5311   -5.6561 C   0  0  0  0  0  0  0  0  0  0  0  0
   -0.8639    0.7840    6.9069 C   0  0  0  0  0  0  0  0  0  0  0  0
   -1.8107    2.8510    5.9323 C   0  0  0  0  0  0  0  0  0  0  0  0
  1  2  1  0  0  0  0
  1 10  1  0  0  0  0
  1 16  1  0  0  0  0
  2  4  2  0  0  0  0
  2  9  1  0  0  0  0
  4  6  1  0  0  0  0
  6  7  2  0  0  0  0
  7  8  1  0  0  0  0
  8  9  2  0  0  0  0
 10 11  2  0  0  0  0
 10 15  1  0  0  0  0
 11 12  1  0  0  0  0
 12 13  2  0  0  0  0
 13  3  1  0  0  0  0
 13 14  1  0  0  0  0
 14 15  2  0  0  0  0
 16 17  2  0  0  0  0
 16 21  1  0  0  0  0
 17 18  1  0  0  0  0
 18 19  2  0  0  0  0
 19  5  1  0  0  0  0
 19 20  1  0  0  0  0
 20 21  2  0  0  0  0
 22  3  1  0  0  0  0
 23  3  1  0  0  0  0
 24  5  1  0  0  0  0
 25  5  1  0  0  0  0
M  END
>  <CHROM.1>
11.72012502,-70.09849934,7.29800043,-53.18310359,3.35588346,0.15368508,0.28364638
0.43152237,-1.19341444,-1.22245525,2.08067976

>  <Name>
1q8n_lig

>  <RI>
0

>  <Rbt.Current_Directory>
/home/itssahil/PROJECTS/Mol_Feturizer/New_Systems/rnas/1q8n

>  <Rbt.Executable>
rbdock ($Id: //depot/dev/client3/rdock/2013.1/src/exe/rbdock.cxx#4 $)

>  <Rbt.Library>
libRbt.so (2013.1, Build901 2013/11/27)

>  <Rbt.Parameter_File>
/export/apps/rDock/src/rDock_2013.1_src/data/scripts/dock_solv.prm

>  <Rbt.Receptor>
prm/pocket_docking_7.prm

>  <SCORE>
-42.7754

>  <SCORE.INTER>
-44.9676

>  <SCORE.INTER.CONST>
1

>  <SCORE.INTER.POLAR>
0

>  <SCORE.INTER.ROT>
5

>  <SCORE.INTER.SOLV>
9.06377

>  <SCORE.INTER.VDW>
-39.933

>  <SCORE.INTER.norm>
-1.7987

>  <SCORE.INTRA>
2.19213

>  <SCORE.INTRA.DIHEDRAL>
8.24249

>  <SCORE.INTRA.DIHEDRAL.0>
2.1627

>  <SCORE.INTRA.POLAR>
0

>  <SCORE.INTRA.POLAR.0>
0

>  <SCORE.INTRA.REPUL>
0

>  <SCORE.INTRA.REPUL.0>
0

>  <SCORE.INTRA.SOLV>
0.0220464

>  <SCORE.INTRA.SOLV.lig_0>
-5.95779

>  <SCORE.INTRA.VDW>
-1.94014

>  <SCORE.INTRA.VDW.0>
3.81702

>  <SCORE.INTRA.norm>
0.0876853

>  <SCORE.RESTR>
0

>  <SCORE.RESTR.CAVITY>
0

>  <SCORE.RESTR.norm>
0

>  <SCORE.SYSTEM>
0

>  <SCORE.SYSTEM.CONST>
0

>  <SCORE.SYSTEM.DIHEDRAL>
0

>  <SCORE.SYSTEM.SOLV>
0

>  <SCORE.SYSTEM.norm>
0

>  <SCORE.heavy>
25

>  <SCORE.norm>
-1.71102

>  <RMSD>
5.756

$$$$
1q8n_lig
 OpenBabel11021811413D
libRbt.so/2013.1/901 2013/11/27
 25 27  0  0  0  0  0  0  0  0999 V2000
    0.5585   -0.2734    0.3601 C   0  0  0  0  0  0  0  0  0  0  0  0
    0.9771   -1.8450    0.2178 C   0  0  0  0  0  0  0  0  0  0  0  0
   -1.0189    1.7722    5.7219 N   0  0  0  0  0  0  0  0  0  0  0  0
    0.8093   -2.7557    1.2064 C   0  0  0  0  0  0  0  0  0  0  0  0
    0.4684    3.2529   -4.4845 N   0  0  0  0  0  0  0  0  0  0  0  0
    1.2083   -4.1722    1.0384 C   0  0  0  0  0  0  0  0  0  0  0  0
    1.7549   -4.5818   -0.1293 C   0  0  0  0  0  0  0  0  0  0  0  0
    1.9365   -3.6285   -1.1989 C   0  0  0  0  0  0  0  0  0  0  0  0
    1.5745   -2.3537   -1.0345 C   0  0  0  0  0  0  0  0  0  0  0  0
    0.1276    0.2824    1.8317 C   0  0  0  0  0  0  0  0  0  0  0  0
    0.5082   -0.3542    2.9587 C   0  0  0  0  0  0  0  0  0  0  0  0
    0.1241    0.1389    4.3104 C   0  0  0  0  0  0  0  0  0  0  0  0
   -0.6297    1.2633    4.4400 C   0  0  0  0  0  0  0  0  0  0  0  0
   -1.0515    1.9714    3.2166 C   0  0  0  0  0  0  0  0  0  0  0  0
   -0.6985    1.5128    2.0077 C   0  0  0  0  0  0  0  0  0  0  0  0
    0.5618    0.7517   -0.9430 C   0  0  0  0  0  0  0  0  0  0  0  0
    0.2277    0.2230   -2.3106 C   0  0  0  0  0  0  0  0  0  0  0  0
    0.2032    0.9971   -3.3990 C   0  0  0  0  0  0  0  0  0  0  0  0
    0.5083    2.4300   -3.3121 C   0  0  0  0  0  0  0  0  0  0  0  0
    0.8206    2.9542   -2.1087 C   0  0  0  0  0  0  0  0  0  0  0  0
    0.8498    2.0941   -0.8781 C   0  0  0  0  0  0  0  0  0  0  0  0
   -0.6198    1.1462    6.9455 C   0  0  0  0  0  0  0  0  0  0  0  0
   -1.8328    2.9445    5.8130 C   0  0  0  0  0  0  0  0  0  0  0  0
   -0.2789    2.8379   -5.6368 C   0  0  0  0  0  0  0  0  0  0  0  0
    1.1682    4.5166   -4.5382 C   0  0  0  0  0  0  0  0  0  0  0  0
  1  2  1  0  0  0  0
  1 10  1  0  0  0  0
  1 16  1  0  0  0  0
  2  4  2  0  0  0  0
  2  9  1  0  0  0  0
  4  6  1  0  0  0  0
  6  7  2  0  0  0  0
  7  8  1  0  0  0  0
  8  9  2  0  0  0  0
 10 11  2  0  0  0  0
 10 15  1  0  0  0  0
 11 12  1  0  0  0  0
 12 13  2  0  0  0  0
 13  3  1  0  0  0  0
 13 14  1  0  0  0  0
 14 15  2  0  0  0  0
 16 17  2  0  0  0  0
 16 21  1  0  0  0  0
 17 18  1  0  0  0  0
 18 19  2  0  0  0  0
 19  5  1  0  0  0  0
 19 20  1  0  0  0  0
 20 21  2  0  0  0  0
 22  3  1  0  0  0  0
 23  3  1  0  0  0  0
 24  5  1  0  0  0  0
 25  5  1  0  0  0  0
M  END
>  <CHROM.1>
9.57735891,21.65289723,32.52188022,1.19818261,21.05763136,0.30938645,0.51429544
0.41031751,-2.03744545,1.26600772,-0.97724452

>  <Name>
1q8n_lig

>  <RI>
0

>  <Rbt.Current_Directory>
/home/itssahil/PROJECTS/Mol_Feturizer/New_Systems/rnas/1q8n

>  <Rbt.Executable>
rbdock ($Id: //depot/dev/client3/rdock/2013.1/src/exe/rbdock.cxx#4 $)

>  <Rbt.Library>
libRbt.so (2013.1, Build901 2013/11/27)

>  <Rbt.Parameter_File>
/export/apps/rDock/src/rDock_2013.1_src/data/scripts/dock_solv.prm

>  <Rbt.Receptor>
prm/pocket_docking_8.prm

>  <SCORE>
-45.7151

>  <SCORE.INTER>
-46.6586

>  <SCORE.INTER.CONST>
1

>  <SCORE.INTER.POLAR>
0

>  <SCORE.INTER.ROT>
5

>  <SCORE.INTER.SOLV>
9.45502

>  <SCORE.INTER.VDW>
-41.1907

>  <SCORE.INTER.norm>
-1.86634

>  <SCORE.INTRA>
0.94354

>  <SCORE.INTRA.DIHEDRAL>
1.65182

>  <SCORE.INTRA.DIHEDRAL.0>
2.1627

>  <SCORE.INTRA.POLAR>
0

>  <SCORE.INTRA.POLAR.0>
0

>  <SCORE.INTRA.REPUL>
0

>  <SCORE.INTRA.REPUL.0>
0

>  <SCORE.INTRA.SOLV>
0.0483737

>  <SCORE.INTRA.SOLV.lig_0>
-5.95779

>  <SCORE.INTRA.VDW>
0.0934439

>  <SCORE.INTRA.VDW.0>
3.81702

>  <SCORE.INTRA.norm>
0.0377416

>  <SCORE.RESTR>
0

>  <SCORE.RESTR.CAVITY>
0

>  <SCORE.RESTR.norm>
0

>  <SCORE.SYSTEM>
0

>  <SCORE.SYSTEM.CONST>
0

>  <SCORE.SYSTEM.DIHEDRAL>
0

>  <SCORE.SYSTEM.SOLV>
0

>  <SCORE.SYSTEM.norm>
0

>  <SCORE.heavy>
25

>  <SCORE.norm>
-1.8286

>  <RMSD>
5.756

$$$$
1q8n_lig
 OpenBabel11021811413D
libRbt.so/2013.1/901 2013/11/27
 25 27  0  0  0  0  0  0  0  0999 V2000
    0.5495   -0.2807    0.3711 C   0  0  0  0  0  0  0  0  0  0  0  0
    0.9819   -1.8494    0.2378 C   0  0  0  0  0  0  0  0  0  0  0  0
   -1.0737    1.7372    5.7297 N   0  0  0  0  0  0  0  0  0  0  0  0
    0.7951   -2.7624    1.2208 C   0  0  0  0  0  0  0  0  0  0  0  0
    0.4665    3.2270   -4.4871 N   0  0  0  0  0  0  0  0  0  0  0  0
    1.2074   -4.1761    1.0614 C   0  0  0  0  0  0  0  0  0  0  0  0
    1.7862   -4.5806   -0.0924 C   0  0  0  0  0  0  0  0  0  0  0  0
    1.9885   -3.6248   -1.1561 C   0  0  0  0  0  0  0  0  0  0  0  0
    1.6141   -2.3527   -0.9996 C   0  0  0  0  0  0  0  0  0  0  0  0
    0.1033    0.2770    1.8374 C   0  0  0  0  0  0  0  0  0  0  0  0
   -0.6486    1.3902    1.9631 C   0  0  0  0  0  0  0  0  0  0  0  0
   -1.0652    1.9138    3.2936 C   0  0  0  0  0  0  0  0  0  0  0  0
   -0.6923    1.2677    4.4306 C   0  0  0  0  0  0  0  0  0  0  0  0
    0.1281    0.0479    4.3089 C   0  0  0  0  0  0  0  0  0  0  0  0
    0.4959   -0.4086    3.1035 C   0  0  0  0  0  0  0  0  0  0  0  0
    0.5541    0.7395   -0.9357 C   0  0  0  0  0  0  0  0  0  0  0  0
    0.2338    0.2033   -2.3037 C   0  0  0  0  0  0  0  0  0  0  0  0
    0.2110    0.9732   -3.3951 C   0  0  0  0  0  0  0  0  0  0  0  0
    0.5044    2.4087   -3.3114 C   0  0  0  0  0  0  0  0  0  0  0  0
    0.8041    2.9397   -2.1078 C   0  0  0  0  0  0  0  0  0  0  0  0
    0.8313    2.0844   -0.8738 C   0  0  0  0  0  0  0  0  0  0  0  0
   -1.9212    2.8760    5.9120 C   0  0  0  0  0  0  0  0  0  0  0  0
   -0.6079    1.0643    6.9026 C   0  0  0  0  0  0  0  0  0  0  0  0
    1.1734    4.4749   -4.5252 C   0  0  0  0  0  0  0  0  0  0  0  0
   -0.2732    2.8205   -5.6606 C   0  0  0  0  0  0  0  0  0  0  0  0
  1  2  1  0  0  0  0
  1 10  1  0  0  0  0
  1 16  1  0  0  0  0
  2  4  2  0  0  0  0
  2  9  1  0  0  0  0
  4  6  1  0  0  0  0
  6  7  2  0  0  0  0
  7  8  1  0  0  0  0
  8  9  2  0  0  0  0
 10 11  2  0  0  0  0
 10 15  1  0  0  0  0
 11 12  1  0  0  0  0
 12 13  2  0  0  0  0
 13  3  1  0  0  0  0
 13 14  1  0  0  0  0
 14 15  2  0  0  0  0
 16 17  2  0  0  0  0
 16 21  1  0  0  0  0
 17 18  1  0  0  0  0
 18 19  2  0  0  0  0
 19  5  1  0  0  0  0
 19 20  1  0  0  0  0
 20 21  2  0  0  0  0
 22  3  1  0  0  0  0
 23  3  1  0  0  0  0
 24  5  1  0  0  0  0
 25  5  1  0  0  0  0
M  END
>  <CHROM.1>
10.64788290,-158.83713493,32.55060582,3.00967540,-158.40223223,0.30474849
0.48480317,0.42745450,-2.03106937,1.25646636,-0.97844435

>  <Name>
1q8n_lig

>  <RI>
0

>  <Rbt.Current_Directory>
/home/itssahil/PROJECTS/Mol_Feturizer/New_Systems/rnas/1q8n

>  <Rbt.Executable>
rbdock ($Id: //depot/dev/client3/rdock/2013.1/src/exe/rbdock.cxx#4 $)

>  <Rbt.Library>
libRbt.so (2013.1, Build901 2013/11/27)

>  <Rbt.Parameter_File>
/export/apps/rDock/src/rDock_2013.1_src/data/scripts/dock_solv.prm

>  <Rbt.Receptor>
prm/pocket_docking_7.prm

>  <SCORE>
-45.5335

>  <SCORE.INTER>
-46.4596

>  <SCORE.INTER.CONST>
1

>  <SCORE.INTER.POLAR>
0

>  <SCORE.INTER.ROT>
5

>  <SCORE.INTER.SOLV>
9.32812

>  <SCORE.INTER.VDW>
-41.0157

>  <SCORE.INTER.norm>
-1.85838

>  <SCORE.INTRA>
0.926018

>  <SCORE.INTRA.DIHEDRAL>
1.76499

>  <SCORE.INTRA.DIHEDRAL.0>
2.1627

>  <SCORE.INTRA.POLAR>
0

>  <SCORE.INTRA.POLAR.0>
0

>  <SCORE.INTRA.REPUL>
0

>  <SCORE.INTRA.REPUL.0>
0

>  <SCORE.INTRA.SOLV>
0.0485389

>  <SCORE.INTRA.SOLV.lig_0>
-5.95779

>  <SCORE.INTRA.VDW>
0.0192533

>  <SCORE.INTRA.VDW.0>
3.81702

>  <SCORE.INTRA.norm>
0.0370407

>  <SCORE.RESTR>
0

>  <SCORE.RESTR.CAVITY>
0

>  <SCORE.RESTR.norm>
0

>  <SCORE.SYSTEM>
0

>  <SCORE.SYSTEM.CONST>
0

>  <SCORE.SYSTEM.DIHEDRAL>
0

>  <SCORE.SYSTEM.SOLV>
0

>  <SCORE.SYSTEM.norm>
0

>  <SCORE.heavy>
25

>  <SCORE.norm>
-1.82134

>  <RMSD>
5.764

$$$$
1q8n_lig
 OpenBabel11021811403D
libRbt.so/2013.1/901 2013/11/27
 25 27  0  0  0  0  0  0  0  0999 V2000
    1.5343   -2.4574    0.1696 C   0  0  0  0  0  0  0  0  0  0  0  0
    1.4348   -3.3064    1.5605 C   0  0  0  0  0  0  0  0  0  0  0  0
    3.5540   -5.2146   -4.7028 N   0  0  0  0  0  0  0  0  0  0  0  0
    0.3628   -3.2634    2.3875 C   0  0  0  0  0  0  0  0  0  0  0  0
   -0.1360    3.2976    0.1098 N   0  0  0  0  0  0  0  0  0  0  0  0
    0.3151   -4.0457    3.6443 C   0  0  0  0  0  0  0  0  0  0  0  0
    1.3627   -4.8297    3.9874 C   0  0  0  0  0  0  0  0  0  0  0  0
    2.5130   -4.8954    3.1165 C   0  0  0  0  0  0  0  0  0  0  0  0
    2.5449   -4.1839    1.9870 C   0  0  0  0  0  0  0  0  0  0  0  0
    2.0869   -3.2178   -1.1633 C   0  0  0  0  0  0  0  0  0  0  0  0
    1.8620   -4.5332   -1.3619 C   0  0  0  0  0  0  0  0  0  0  0  0
    2.3589   -5.2438   -2.5727 C   0  0  0  0  0  0  0  0  0  0  0  0
    3.0602   -4.5690   -3.5226 C   0  0  0  0  0  0  0  0  0  0  0  0
    3.3119   -3.1297   -3.3203 C   0  0  0  0  0  0  0  0  0  0  0  0
    2.8590   -2.5061   -2.2237 C   0  0  0  0  0  0  0  0  0  0  0  0
    1.0924   -0.8615    0.0882 C   0  0  0  0  0  0  0  0  0  0  0  0
    0.3053   -0.2457    1.2119 C   0  0  0  0  0  0  0  0  0  0  0  0
   -0.0733    1.0354    1.2125 C   0  0  0  0  0  0  0  0  0  0  0  0
    0.2660    1.9223    0.0935 C   0  0  0  0  0  0  0  0  0  0  0  0
    0.9663    1.4180   -0.9437 C   0  0  0  0  0  0  0  0  0  0  0  0
    1.3986   -0.0200   -0.9547 C   0  0  0  0  0  0  0  0  0  0  0  0
    2.6966   -5.9321   -5.5965 C   0  0  0  0  0  0  0  0  0  0  0  0
    4.9460   -5.1563   -5.0252 C   0  0  0  0  0  0  0  0  0  0  0  0
    0.3772    4.2147   -0.8668 C   0  0  0  0  0  0  0  0  0  0  0  0
   -1.0665    3.7956    1.0975 C   0  0  0  0  0  0  0  0  0  0  0  0
  1  2  1  0  0  0  0
  1 10  1  0  0  0  0
  1 16  1  0  0  0  0
  2  4  2  0  0  0  0
  2  9  1  0  0  0  0
  4  6  1  0  0  0  0
  6  7  2  0  0  0  0
  7  8  1  0  0  0  0
  8  9  2  0  0  0  0
 10 11  2  0  0  0  0
 10 15  1  0  0  0  0
 11 12  1  0  0  0  0
 12 13  2  0  0  0  0
 13  3  1  0  0  0  0
 13 14  1  0  0  0  0
 14 15  2  0  0  0  0
 16 17  2  0  0  0  0
 16 21  1  0  0  0  0
 17 18  1  0  0  0  0
 18 19  2  0  0  0  0
 19  5  1  0  0  0  0
 19 20  1  0  0  0  0
 20 21  2  0  0  0  0
 22  3  1  0  0  0  0
 23  3  1  0  0  0  0
 24  5  1  0  0  0  0
 25  5  1  0  0  0  0
M  END
>  <CHROM.1>
-135.10167923,32.09930617,-13.65742321,55.72780866,169.71536182,1.60157860
-2.03961004,-0.52464003,2.90519936,1.18812439,-0.80686800

>  <Name>
1q8n_lig

>  <RI>
0

>  <Rbt.Current_Directory>
/home/itssahil/PROJECTS/Mol_Feturizer/New_Systems/rnas/1q8n

>  <Rbt.Executable>
rbdock ($Id: //depot/dev/client3/rdock/2013.1/src/exe/rbdock.cxx#4 $)

>  <Rbt.Library>
libRbt.so (2013.1, Build901 2013/11/27)

>  <Rbt.Parameter_File>
/export/apps/rDock/src/rDock_2013.1_src/data/scripts/dock_solv.prm

>  <Rbt.Receptor>
prm/blind_docking_100.prm

>  <SCORE>
-40.3395

>  <SCORE.INTER>
-42.5947

>  <SCORE.INTER.CONST>
1

>  <SCORE.INTER.POLAR>
0

>  <SCORE.INTER.ROT>
5

>  <SCORE.INTER.SOLV>
11.01

>  <SCORE.INTER.VDW>
-38.9998

>  <SCORE.INTER.norm>
-1.70379

>  <SCORE.INTRA>
2.2552

>  <SCORE.INTRA.DIHEDRAL>
9.14809

>  <SCORE.INTRA.DIHEDRAL.0>
2.1627

>  <SCORE.INTRA.POLAR>
0

>  <SCORE.INTRA.POLAR.0>
0

>  <SCORE.INTRA.REPUL>
0

>  <SCORE.INTRA.REPUL.0>
0

>  <SCORE.INTRA.SOLV>
0.0256615

>  <SCORE.INTRA.SOLV.lig_0>
-5.95779

>  <SCORE.INTRA.VDW>
-2.33167

>  <SCORE.INTRA.VDW.0>
3.81702

>  <SCORE.INTRA.norm>
0.090208

>  <SCORE.RESTR>
0

>  <SCORE.RESTR.CAVITY>
0

>  <SCORE.RESTR.norm>
0

>  <SCORE.SYSTEM>
0

>  <SCORE.SYSTEM.CONST>
0

>  <SCORE.SYSTEM.DIHEDRAL>
0

>  <SCORE.SYSTEM.SOLV>
0

>  <SCORE.SYSTEM.norm>
0

>  <SCORE.heavy>
25

>  <SCORE.norm>
-1.61358

>  <RMSD>
5.772

$$$$
1q8n_lig
 OpenBabel11021811403D
libRbt.so/2013.1/901 2013/11/27
 25 27  0  0  0  0  0  0  0  0999 V2000
    0.6026   -0.2955    0.2913 C   0  0  0  0  0  0  0  0  0  0  0  0
    1.0393   -1.8607    0.1330 C   0  0  0  0  0  0  0  0  0  0  0  0
   -1.0138    1.6730    5.6703 N   0  0  0  0  0  0  0  0  0  0  0  0
    1.6100   -2.3680   -0.9858 C   0  0  0  0  0  0  0  0  0  0  0  0
    0.4874    3.2828   -4.5145 N   0  0  0  0  0  0  0  0  0  0  0  0
    1.9863   -3.7968   -1.0907 C   0  0  0  0  0  0  0  0  0  0  0  0
    1.7610   -4.6287   -0.0480 C   0  0  0  0  0  0  0  0  0  0  0  0
    1.1596   -4.1069    1.1570 C   0  0  0  0  0  0  0  0  0  0  0  0
    0.8231   -2.8172    1.2386 C   0  0  0  0  0  0  0  0  0  0  0  0
    0.1611    0.2392    1.7675 C   0  0  0  0  0  0  0  0  0  0  0  0
    0.5514   -0.4014    2.8890 C   0  0  0  0  0  0  0  0  0  0  0  0
    0.1578    0.0724    4.2449 C   0  0  0  0  0  0  0  0  0  0  0  0
   -0.6149    1.1827    4.3842 C   0  0  0  0  0  0  0  0  0  0  0  0
   -1.0475    1.8951    3.1670 C   0  0  0  0  0  0  0  0  0  0  0  0
   -0.6857    1.4538    1.9542 C   0  0  0  0  0  0  0  0  0  0  0  0
    0.5982    0.7438   -1.0004 C   0  0  0  0  0  0  0  0  0  0  0  0
    0.2752    0.2264   -2.3750 C   0  0  0  0  0  0  0  0  0  0  0  0
    0.2453    1.0121   -3.4549 C   0  0  0  0  0  0  0  0  0  0  0  0
    0.5330    2.4474   -3.3511 C   0  0  0  0  0  0  0  0  0  0  0  0
    0.8349    2.9620   -2.1409 C   0  0  0  0  0  0  0  0  0  0  0  0
    0.8700    2.0888   -0.9197 C   0  0  0  0  0  0  0  0  0  0  0  0
   -1.8056    2.8552    5.8252 C   0  0  0  0  0  0  0  0  0  0  0  0
   -0.6232    0.9777    6.8575 C   0  0  0  0  0  0  0  0  0  0  0  0
   -0.2585    2.8760   -5.6706 C   0  0  0  0  0  0  0  0  0  0  0  0
    1.1801    4.5508   -4.5553 C   0  0  0  0  0  0  0  0  0  0  0  0
  1  2  1  0  0  0  0
  1 10  1  0  0  0  0
  1 16  1  0  0  0  0
  2  4  2  0  0  0  0
  2  9  1  0  0  0  0
  4  6  1  0  0  0  0
  6  7  2  0  0  0  0
  7  8  1  0  0  0  0
  8  9  2  0  0  0  0
 10 11  2  0  0  0  0
 10 15  1  0  0  0  0
 11 12  1  0  0  0  0
 12 13  2  0  0  0  0
 13  3  1  0  0  0  0
 13 14  1  0  0  0  0
 14 15  2  0  0  0  0
 16 17  2  0  0  0  0
 16 21  1  0  0  0  0
 17 18  1  0  0  0  0
 18 19  2  0  0  0  0
 19  5  1  0  0  0  0
 19 20  1  0  0  0  0
 20 21  2  0  0  0  0
 22  3  1  0  0  0  0
 23  3  1  0  0  0  0
 24  5  1  0  0  0  0
 25  5  1  0  0  0  0
M  END
>  <CHROM.1>
-169.84461101,22.00867386,32.47580187,178.78215124,21.49579085,0.33173917
0.47946804,0.38572662,-2.01055714,1.26112580,-0.96789964

>  <Name>
1q8n_lig

>  <RI>
0

>  <Rbt.Current_Directory>
/home/itssahil/PROJECTS/Mol_Feturizer/New_Systems/rnas/1q8n

>  <Rbt.Executable>
rbdock ($Id: //depot/dev/client3/rdock/2013.1/src/exe/rbdock.cxx#4 $)

>  <Rbt.Library>
libRbt.so (2013.1, Build901 2013/11/27)

>  <Rbt.Parameter_File>
/export/apps/rDock/src/rDock_2013.1_src/data/scripts/dock_solv.prm

>  <Rbt.Receptor>
prm/pocket_docking_4.prm

>  <SCORE>
-45.7118

>  <SCORE.INTER>
-46.7327

>  <SCORE.INTER.CONST>
1

>  <SCORE.INTER.POLAR>
0

>  <SCORE.INTER.ROT>
5

>  <SCORE.INTER.SOLV>
9.40145

>  <SCORE.INTER.VDW>
-41.2223

>  <SCORE.INTER.norm>
-1.86931

>  <SCORE.INTRA>
1.02094

>  <SCORE.INTRA.DIHEDRAL>
1.71816

>  <SCORE.INTRA.DIHEDRAL.0>
2.1627

>  <SCORE.INTRA.POLAR>
0

>  <SCORE.INTRA.POLAR.0>
0

>  <SCORE.INTRA.REPUL>
0

>  <SCORE.INTRA.REPUL.0>
0

>  <SCORE.INTRA.SOLV>
0.0483163

>  <SCORE.INTRA.SOLV.lig_0>
-5.95779

>  <SCORE.INTRA.VDW>
0.137699

>  <SCORE.INTRA.VDW.0>
3.81702

>  <SCORE.INTRA.norm>
0.0408375

>  <SCORE.RESTR>
0

>  <SCORE.RESTR.CAVITY>
0

>  <SCORE.RESTR.norm>
0

>  <SCORE.SYSTEM>
0

>  <SCORE.SYSTEM.CONST>
0

>  <SCORE.SYSTEM.DIHEDRAL>
0

>  <SCORE.SYSTEM.SOLV>
0

>  <SCORE.SYSTEM.norm>
0

>  <SCORE.heavy>
25

>  <SCORE.norm>
-1.82847

>  <RMSD>
5.782

$$$$
1q8n_lig
 OpenBabel11021811403D
libRbt.so/2013.1/901 2013/11/27
 25 27  0  0  0  0  0  0  0  0999 V2000
    1.5713   -2.5040    0.1872 C   0  0  0  0  0  0  0  0  0  0  0  0
    1.5082   -3.3525    1.5806 C   0  0  0  0  0  0  0  0  0  0  0  0
    3.5099   -5.2493   -4.7247 N   0  0  0  0  0  0  0  0  0  0  0  0
    2.5216   -4.1324    2.0274 C   0  0  0  0  0  0  0  0  0  0  0  0
   -0.1620    3.2325    0.1530 N   0  0  0  0  0  0  0  0  0  0  0  0
    2.4215   -4.8911    3.2955 C   0  0  0  0  0  0  0  0  0  0  0  0
    1.2939   -4.8112    4.0386 C   0  0  0  0  0  0  0  0  0  0  0  0
    0.2038   -3.9800    3.5839 C   0  0  0  0  0  0  0  0  0  0  0  0
    0.3054   -3.3022    2.4379 C   0  0  0  0  0  0  0  0  0  0  0  0
    2.1019   -3.2611   -1.1565 C   0  0  0  0  0  0  0  0  0  0  0  0
    1.9202   -4.5867   -1.3302 C   0  0  0  0  0  0  0  0  0  0  0  0
    2.3979   -5.2945   -2.5504 C   0  0  0  0  0  0  0  0  0  0  0  0
    3.0366   -4.6067   -3.5344 C   0  0  0  0  0  0  0  0  0  0  0  0
    3.2406   -3.1563   -3.3595 C   0  0  0  0  0  0  0  0  0  0  0  0
    2.8058   -2.5353   -2.2541 C   0  0  0  0  0  0  0  0  0  0  0  0
    1.1145   -0.9119    0.1138 C   0  0  0  0  0  0  0  0  0  0  0  0
    0.2747   -0.3238    1.2140 C   0  0  0  0  0  0  0  0  0  0  0  0
   -0.1184    0.9528    1.2200 C   0  0  0  0  0  0  0  0  0  0  0  0
    0.2564    1.8622    0.1308 C   0  0  0  0  0  0  0  0  0  0  0  0
    1.0046    1.3832   -0.8848 C   0  0  0  0  0  0  0  0  0  0  0  0
    1.4537   -0.0496   -0.9015 C   0  0  0  0  0  0  0  0  0  0  0  0
    2.6354   -5.9549   -5.6112 C   0  0  0  0  0  0  0  0  0  0  0  0
    4.8981   -5.1999   -5.0649 C   0  0  0  0  0  0  0  0  0  0  0  0
   -1.0837    3.6933    1.1512 C   0  0  0  0  0  0  0  0  0  0  0  0
    0.3323    4.1837   -0.8168 C   0  0  0  0  0  0  0  0  0  0  0  0
  1  2  1  0  0  0  0
  1 10  1  0  0  0  0
  1 16  1  0  0  0  0
  2  4  2  0  0  0  0
  2  9  1  0  0  0  0
  4  6  1  0  0  0  0
  6  7  2  0  0  0  0
  7  8  1  0  0  0  0
  8  9  2  0  0  0  0
 10 11  2  0  0  0  0
 10 15  1  0  0  0  0
 11 12  1  0  0  0  0
 12 13  2  0  0  0  0
 13  3  1  0  0  0  0
 13 14  1  0  0  0  0
 14 15  2  0  0  0  0
 16 17  2  0  0  0  0
 16 21  1  0  0  0  0
 17 18  1  0  0  0  0
 18 19  2  0  0  0  0
 19  5  1  0  0  0  0
 19 20  1  0  0  0  0
 20 21  2  0  0  0  0
 22  3  1  0  0  0  0
 23  3  1  0  0  0  0
 24  5  1  0  0  0  0
 25  5  1  0  0  0  0
M  END
>  <CHROM.1>
46.99014569,30.02432935,-17.37446338,58.89903408,-7.57176623,1.58082258,-2.07457541
-0.50352786,0.21440533,-1.19055603,2.33441841

>  <Name>
1q8n_lig

>  <RI>
0

>  <Rbt.Current_Directory>
/home/itssahil/PROJECTS/Mol_Feturizer/New_Systems/rnas/1q8n

>  <Rbt.Executable>
rbdock ($Id: //depot/dev/client3/rdock/2013.1/src/exe/rbdock.cxx#4 $)

>  <Rbt.Library>
libRbt.so (2013.1, Build901 2013/11/27)

>  <Rbt.Parameter_File>
/export/apps/rDock/src/rDock_2013.1_src/data/scripts/dock_solv.prm

>  <Rbt.Receptor>
prm/blind_docking_40.prm

>  <SCORE>
-40.1685

>  <SCORE.INTER>
-42.5859

>  <SCORE.INTER.CONST>
1

>  <SCORE.INTER.POLAR>
0

>  <SCORE.INTER.ROT>
5

>  <SCORE.INTER.SOLV>
11.0385

>  <SCORE.INTER.VDW>
-39.0034

>  <SCORE.INTER.norm>
-1.70344

>  <SCORE.INTRA>
2.41739

>  <SCORE.INTRA.DIHEDRAL>
9.60589

>  <SCORE.INTRA.DIHEDRAL.0>
2.1627

>  <SCORE.INTRA.POLAR>
0

>  <SCORE.INTRA.POLAR.0>
0

>  <SCORE.INTRA.REPUL>
0

>  <SCORE.INTRA.REPUL.0>
0

>  <SCORE.INTRA.SOLV>
0.0251614

>  <SCORE.INTRA.SOLV.lig_0>
-5.95779

>  <SCORE.INTRA.VDW>
-2.39814

>  <SCORE.INTRA.VDW.0>
3.81702

>  <SCORE.INTRA.norm>
0.0966956

>  <SCORE.RESTR>
0

>  <SCORE.RESTR.CAVITY>
0

>  <SCORE.RESTR.norm>
0

>  <SCORE.SYSTEM>
0

>  <SCORE.SYSTEM.CONST>
0

>  <SCORE.SYSTEM.DIHEDRAL>
0

>  <SCORE.SYSTEM.SOLV>
0

>  <SCORE.SYSTEM.norm>
0

>  <SCORE.heavy>
25

>  <SCORE.norm>
-1.60674

>  <RMSD>
5.783

$$$$
1q8n_lig
 OpenBabel11021811403D
libRbt.so/2013.1/901 2013/11/27
 25 27  0  0  0  0  0  0  0  0999 V2000
    1.6226   -2.4936    0.2044 C   0  0  0  0  0  0  0  0  0  0  0  0
    1.5347   -3.3186    1.6105 C   0  0  0  0  0  0  0  0  0  0  0  0
   -0.1585    3.1851    0.1640 N   0  0  0  0  0  0  0  0  0  0  0  0
    2.5479   -4.0735    2.0988 C   0  0  0  0  0  0  0  0  0  0  0  0
    3.5291   -5.2441   -4.7667 N   0  0  0  0  0  0  0  0  0  0  0  0
    2.4251   -4.8117    3.3770 C   0  0  0  0  0  0  0  0  0  0  0  0
    1.2762   -4.7378    4.0873 C   0  0  0  0  0  0  0  0  0  0  0  0
    0.1857   -3.9330    3.5882 C   0  0  0  0  0  0  0  0  0  0  0  0
    0.3080   -3.2737    2.4334 C   0  0  0  0  0  0  0  0  0  0  0  0
    1.1381   -0.9363    0.1895 C   0  0  0  0  0  0  0  0  0  0  0  0
    1.4648   -0.1120   -0.8275 C   0  0  0  0  0  0  0  0  0  0  0  0
    1.0312    1.3125   -0.8578 C   0  0  0  0  0  0  0  0  0  0  0  0
    0.2808    1.8211    0.1558 C   0  0  0  0  0  0  0  0  0  0  0  0
   -0.0862    0.9311    1.2736 C   0  0  0  0  0  0  0  0  0  0  0  0
    0.3141   -0.3481    1.2859 C   0  0  0  0  0  0  0  0  0  0  0  0
    2.1849   -3.1984   -1.1869 C   0  0  0  0  0  0  0  0  0  0  0  0
    1.9600   -4.6661   -1.4249 C   0  0  0  0  0  0  0  0  0  0  0  0
    2.3787   -5.2923   -2.5281 C   0  0  0  0  0  0  0  0  0  0  0  0
    3.0941   -4.5644   -3.5826 C   0  0  0  0  0  0  0  0  0  0  0  0
    3.3275   -3.2460   -3.4160 C   0  0  0  0  0  0  0  0  0  0  0  0
    2.8603   -2.5311   -2.1809 C   0  0  0  0  0  0  0  0  0  0  0  0
    0.3205    4.1475   -0.7809 C   0  0  0  0  0  0  0  0  0  0  0  0
   -1.1082    3.6287    1.1369 C   0  0  0  0  0  0  0  0  0  0  0  0
    4.9106   -5.2163   -5.1527 C   0  0  0  0  0  0  0  0  0  0  0  0
    2.5988   -5.9761   -5.5963 C   0  0  0  0  0  0  0  0  0  0  0  0
  1  2  1  0  0  0  0
  1 10  1  0  0  0  0
  1 16  1  0  0  0  0
  2  4  2  0  0  0  0
  2  9  1  0  0  0  0
  4  6  1  0  0  0  0
  6  7  2  0  0  0  0
  7  8  1  0  0  0  0
  8  9  2  0  0  0  0
 10 11  2  0  0  0  0
 10 15  1  0  0  0  0
 11 12  1  0  0  0  0
 12 13  2  0  0  0  0
 13  3  1  0  0  0  0
 13 14  1  0  0  0  0
 14 15  2  0  0  0  0
 16 17  2  0  0  0  0
 16 21  1  0  0  0  0
 17 18  1  0  0  0  0
 18 19  2  0  0  0  0
 19  5  1  0  0  0  0
 19 20  1  0  0  0  0
 20 21  2  0  0  0  0
 22  3  1  0  0  0  0
 23  3  1  0  0  0  0
 24  5  1  0  0  0  0
 25  5  1  0  0  0  0
M  END
>  <CHROM.1>
-132.48478729,164.37689196,31.90235810,-9.40296294,-124.02876660,1.59942981
-2.08173726,-0.48994441,2.96602319,1.19092791,-0.81931152

>  <Name>
1q8n_lig

>  <RI>
0

>  <Rbt.Current_Directory>
/home/itssahil/PROJECTS/Mol_Feturizer/New_Systems/rnas/1q8n

>  <Rbt.Executable>
rbdock ($Id: //depot/dev/client3/rdock/2013.1/src/exe/rbdock.cxx#4 $)

>  <Rbt.Library>
libRbt.so (2013.1, Build901 2013/11/27)

>  <Rbt.Parameter_File>
/export/apps/rDock/src/rDock_2013.1_src/data/scripts/dock_solv.prm

>  <Rbt.Receptor>
prm/blind_docking_80.prm

>  <SCORE>
-39.7939

>  <SCORE.INTER>
-42.0212

>  <SCORE.INTER.CONST>
1

>  <SCORE.INTER.POLAR>
0

>  <SCORE.INTER.ROT>
5

>  <SCORE.INTER.SOLV>
10.9692

>  <SCORE.INTER.VDW>
-38.6039

>  <SCORE.INTER.norm>
-1.68085

>  <SCORE.INTRA>
2.22738

>  <SCORE.INTRA.DIHEDRAL>
9.12613

>  <SCORE.INTRA.DIHEDRAL.0>
2.1627

>  <SCORE.INTRA.POLAR>
0

>  <SCORE.INTRA.POLAR.0>
0

>  <SCORE.INTRA.REPUL>
0

>  <SCORE.INTRA.REPUL.0>
0

>  <SCORE.INTRA.SOLV>
0.0234651

>  <SCORE.INTRA.SOLV.lig_0>
-5.95779

>  <SCORE.INTRA.VDW>
-2.34742

>  <SCORE.INTRA.VDW.0>
3.81702

>  <SCORE.INTRA.norm>
0.089095

>  <SCORE.RESTR>
0

>  <SCORE.RESTR.CAVITY>
0

>  <SCORE.RESTR.norm>
0

>  <SCORE.SYSTEM>
0

>  <SCORE.SYSTEM.CONST>
0

>  <SCORE.SYSTEM.DIHEDRAL>
0

>  <SCORE.SYSTEM.SOLV>
0

>  <SCORE.SYSTEM.norm>
0

>  <SCORE.heavy>
25

>  <SCORE.norm>
-1.59175

>  <RMSD>
5.783

$$$$
1q8n_lig
 OpenBabel11021811413D
libRbt.so/2013.1/901 2013/11/27
 25 27  0  0  0  0  0  0  0  0999 V2000
    0.5753   -0.2740    0.2970 C   0  0  0  0  0  0  0  0  0  0  0  0
    1.0011   -1.8416    0.1338 C   0  0  0  0  0  0  0  0  0  0  0  0
   -1.0617    1.6799    5.6752 N   0  0  0  0  0  0  0  0  0  0  0  0
    1.5776   -2.3472   -0.9829 C   0  0  0  0  0  0  0  0  0  0  0  0
    0.5221    3.3282   -4.4919 N   0  0  0  0  0  0  0  0  0  0  0  0
    1.9436   -3.7783   -1.0926 C   0  0  0  0  0  0  0  0  0  0  0  0
    1.7027   -4.6142   -0.0566 C   0  0  0  0  0  0  0  0  0  0  0  0
    1.0950   -4.0944    1.1461 C   0  0  0  0  0  0  0  0  0  0  0  0
    0.7679   -2.8026    1.2320 C   0  0  0  0  0  0  0  0  0  0  0  0
    0.1281    0.2567    1.7730 C   0  0  0  0  0  0  0  0  0  0  0  0
    0.4961   -0.3992    2.8932 C   0  0  0  0  0  0  0  0  0  0  0  0
    0.0969    0.0707    4.2488 C   0  0  0  0  0  0  0  0  0  0  0  0
   -0.6582    1.1929    4.3892 C   0  0  0  0  0  0  0  0  0  0  0  0
   -1.0663    1.9220    3.1735 C   0  0  0  0  0  0  0  0  0  0  0  0
   -0.6999    1.4840    1.9609 C   0  0  0  0  0  0  0  0  0  0  0  0
    0.5875    0.7718   -0.9894 C   0  0  0  0  0  0  0  0  0  0  0  0
    0.2840    0.2609   -2.3708 C   0  0  0  0  0  0  0  0  0  0  0  0
    0.2680    1.0520   -3.4471 C   0  0  0  0  0  0  0  0  0  0  0  0
    0.5527    2.4871   -3.3322 C   0  0  0  0  0  0  0  0  0  0  0  0
    0.8373    2.9959   -2.1154 C   0  0  0  0  0  0  0  0  0  0  0  0
    0.8567    2.1167   -0.8982 C   0  0  0  0  0  0  0  0  0  0  0  0
   -0.7416    0.9904    6.8879 C   0  0  0  0  0  0  0  0  0  0  0  0
   -1.8098    2.8941    5.7818 C   0  0  0  0  0  0  0  0  0  0  0  0
   -0.2322    2.9407   -5.6492 C   0  0  0  0  0  0  0  0  0  0  0  0
    1.2386    4.5832   -4.5276 C   0  0  0  0  0  0  0  0  0  0  0  0
  1  2  1  0  0  0  0
  1 10  1  0  0  0  0
  1 16  1  0  0  0  0
  2  4  2  0  0  0  0
  2  9  1  0  0  0  0
  4  6  1  0  0  0  0
  6  7  2  0  0  0  0
  7  8  1  0  0  0  0
  8  9  2  0  0  0  0
 10 11  2  0  0  0  0
 10 15  1  0  0  0  0
 11 12  1  0  0  0  0
 12 13  2  0  0  0  0
 13  3  1  0  0  0  0
 13 14  1  0  0  0  0
 14 15  2  0  0  0  0
 16 17  2  0  0  0  0
 16 21  1  0  0  0  0
 17 18  1  0  0  0  0
 18 19  2  0  0  0  0
 19  5  1  0  0  0  0
 19 20  1  0  0  0  0
 20 21  2  0  0  0  0
 22  3  1  0  0  0  0
 23  3  1  0  0  0  0
 24  5  1  0  0  0  0
 25  5  1  0  0  0  0
M  END
>  <CHROM.1>
-169.72310828,21.41498878,31.83056960,-2.49996125,22.91033736,0.30950529
0.50427417,0.39243132,-2.04666773,1.26362368,-0.92902659

>  <Name>
1q8n_lig

>  <RI>
0

>  <Rbt.Current_Directory>
/home/itssahil/PROJECTS/Mol_Feturizer/New_Systems/rnas/1q8n

>  <Rbt.Executable>
rbdock ($Id: //depot/dev/client3/rdock/2013.1/src/exe/rbdock.cxx#4 $)

>  <Rbt.Library>
libRbt.so (2013.1, Build901 2013/11/27)

>  <Rbt.Parameter_File>
/export/apps/rDock/src/rDock_2013.1_src/data/scripts/dock_solv.prm

>  <Rbt.Receptor>
prm/pocket_docking_6.prm

>  <SCORE>
-45.7805

>  <SCORE.INTER>
-46.8593

>  <SCORE.INTER.CONST>
1

>  <SCORE.INTER.POLAR>
0

>  <SCORE.INTER.ROT>
5

>  <SCORE.INTER.SOLV>
9.42309

>  <SCORE.INTER.VDW>
-41.3139

>  <SCORE.INTER.norm>
-1.87437

>  <SCORE.INTRA>
1.07879

>  <SCORE.INTRA.DIHEDRAL>
1.95773

>  <SCORE.INTRA.DIHEDRAL.0>
2.1627

>  <SCORE.INTRA.POLAR>
0

>  <SCORE.INTRA.POLAR.0>
0

>  <SCORE.INTRA.REPUL>
0

>  <SCORE.INTRA.REPUL.0>
0

>  <SCORE.INTRA.SOLV>
0.0494259

>  <SCORE.INTRA.SOLV.lig_0>
-5.95779

>  <SCORE.INTRA.VDW>
0.0752116

>  <SCORE.INTRA.VDW.0>
3.81702

>  <SCORE.INTRA.norm>
0.0431515

>  <SCORE.RESTR>
0

>  <SCORE.RESTR.CAVITY>
0

>  <SCORE.RESTR.norm>
0

>  <SCORE.SYSTEM>
0

>  <SCORE.SYSTEM.CONST>
0

>  <SCORE.SYSTEM.DIHEDRAL>
0

>  <SCORE.SYSTEM.SOLV>
0

>  <SCORE.SYSTEM.norm>
0

>  <SCORE.heavy>
25

>  <SCORE.norm>
-1.83122

>  <RMSD>
5.783

$$$$
1q8n_lig
 OpenBabel11021811413D
libRbt.so/2013.1/901 2013/11/27
 25 27  0  0  0  0  0  0  0  0999 V2000
    0.5310   -0.3834    0.3259 C   0  0  0  0  0  0  0  0  0  0  0  0
    1.0106   -1.9335    0.1452 C   0  0  0  0  0  0  0  0  0  0  0  0
    0.4236    3.1337   -4.4741 N   0  0  0  0  0  0  0  0  0  0  0  0
    1.5937   -2.4091   -0.9811 C   0  0  0  0  0  0  0  0  0  0  0  0
   -0.9415    1.6514    5.7669 N   0  0  0  0  0  0  0  0  0  0  0  0
    2.0091   -3.8253   -1.1064 C   0  0  0  0  0  0  0  0  0  0  0  0
    1.8081   -4.6777   -0.0754 C   0  0  0  0  0  0  0  0  0  0  0  0
    1.1940   -4.1897    1.1373 C   0  0  0  0  0  0  0  0  0  0  0  0
    0.8222   -2.9111    1.2374 C   0  0  0  0  0  0  0  0  0  0  0  0
    0.5013    0.5761   -0.9927 C   0  0  0  0  0  0  0  0  0  0  0  0
    0.1401    0.0944   -2.2001 C   0  0  0  0  0  0  0  0  0  0  0  0
    0.1073    0.9557   -3.4146 C   0  0  0  0  0  0  0  0  0  0  0  0
    0.4440    2.2706   -3.3303 C   0  0  0  0  0  0  0  0  0  0  0  0
    0.8391    2.8120   -2.0163 C   0  0  0  0  0  0  0  0  0  0  0  0
    0.8649    2.0223   -0.9336 C   0  0  0  0  0  0  0  0  0  0  0  0
    0.0821    0.2246    1.8016 C   0  0  0  0  0  0  0  0  0  0  0  0
    0.4961   -0.4867    3.0603 C   0  0  0  0  0  0  0  0  0  0  0  0
    0.1757   -0.0447    4.2794 C   0  0  0  0  0  0  0  0  0  0  0  0
   -0.6128    1.1807    4.4540 C   0  0  0  0  0  0  0  0  0  0  0  0
   -1.0152    1.8542    3.3563 C   0  0  0  0  0  0  0  0  0  0  0  0
   -0.6598    1.3678    1.9808 C   0  0  0  0  0  0  0  0  0  0  0  0
   -0.2923    2.8024   -5.6684 C   0  0  0  0  0  0  0  0  0  0  0  0
    1.1325    4.3756   -4.4503 C   0  0  0  0  0  0  0  0  0  0  0  0
   -1.7237    2.8423    5.9356 C   0  0  0  0  0  0  0  0  0  0  0  0
   -0.5039    0.9438    6.9490 C   0  0  0  0  0  0  0  0  0  0  0  0
  1  2  1  0  0  0  0
  1 10  1  0  0  0  0
  1 16  1  0  0  0  0
  2  4  2  0  0  0  0
  2  9  1  0  0  0  0
  4  6  1  0  0  0  0
  6  7  2  0  0  0  0
  7  8  1  0  0  0  0
  8  9  2  0  0  0  0
 10 11  2  0  0  0  0
 10 15  1  0  0  0  0
 11 12  1  0  0  0  0
 12 13  2  0  0  0  0
 13  3  1  0  0  0  0
 13 14  1  0  0  0  0
 14 15  2  0  0  0  0
 16 17  2  0  0  0  0
 16 21  1  0  0  0  0
 17 18  1  0  0  0  0
 18 19  2  0  0  0  0
 19  5  1  0  0  0  0
 19 20  1  0  0  0  0
 20 21  2  0  0  0  0
 22  3  1  0  0  0  0
 23  3  1  0  0  0  0
 24  5  1  0  0  0  0
 25  5  1  0  0  0  0
M  END
>  <CHROM.1>
11.40087016,36.48397464,18.73910065,18.11771559,-179.37840325,0.31759591
0.39899585,0.43932780,-1.14967227,-1.26849480,2.12906174

>  <Name>
1q8n_lig

>  <RI>
0

>  <Rbt.Current_Directory>
/home/itssahil/PROJECTS/Mol_Feturizer/New_Systems/rnas/1q8n

>  <Rbt.Executable>
rbdock ($Id: //depot/dev/client3/rdock/2013.1/src/exe/rbdock.cxx#4 $)

>  <Rbt.Library>
libRbt.so (2013.1, Build901 2013/11/27)

>  <Rbt.Parameter_File>
/export/apps/rDock/src/rDock_2013.1_src/data/scripts/dock_solv.prm

>  <Rbt.Receptor>
prm/pocket_docking_6.prm

>  <SCORE>
-45.521

>  <SCORE.INTER>
-46.2602

>  <SCORE.INTER.CONST>
1

>  <SCORE.INTER.POLAR>
0

>  <SCORE.INTER.ROT>
5

>  <SCORE.INTER.SOLV>
9.2349

>  <SCORE.INTER.VDW>
-40.8518

>  <SCORE.INTER.norm>
-1.85041

>  <SCORE.INTRA>
0.739194

>  <SCORE.INTRA.DIHEDRAL>
1.23506

>  <SCORE.INTRA.DIHEDRAL.0>
2.1627

>  <SCORE.INTRA.POLAR>
0

>  <SCORE.INTRA.POLAR.0>
0

>  <SCORE.INTRA.REPUL>
0

>  <SCORE.INTRA.REPUL.0>
0

>  <SCORE.INTRA.SOLV>
0.0455061

>  <SCORE.INTRA.SOLV.lig_0>
-5.95779

>  <SCORE.INTRA.VDW>
0.0989129

>  <SCORE.INTRA.VDW.0>
3.81702

>  <SCORE.INTRA.norm>
0.0295678

>  <SCORE.RESTR>
0

>  <SCORE.RESTR.CAVITY>
0

>  <SCORE.RESTR.norm>
0

>  <SCORE.SYSTEM>
0

>  <SCORE.SYSTEM.CONST>
0

>  <SCORE.SYSTEM.DIHEDRAL>
0

>  <SCORE.SYSTEM.SOLV>
0

>  <SCORE.SYSTEM.norm>
0

>  <SCORE.heavy>
25

>  <SCORE.norm>
-1.82084

>  <RMSD>
5.783

$$$$
1q8n_lig
 OpenBabel11021811413D
libRbt.so/2013.1/901 2013/11/27
 25 27  0  0  0  0  0  0  0  0999 V2000
    0.4923   -0.5852    0.4181 C   0  0  0  0  0  0  0  0  0  0  0  0
    0.9052   -2.1636    0.3568 C   0  0  0  0  0  0  0  0  0  0  0  0
   -1.0128    1.7554    5.6790 N   0  0  0  0  0  0  0  0  0  0  0  0
    0.6878   -3.0331    1.3725 C   0  0  0  0  0  0  0  0  0  0  0  0
    0.2163    2.8984   -4.4503 N   0  0  0  0  0  0  0  0  0  0  0  0
    1.0833   -4.4574    1.2785 C   0  0  0  0  0  0  0  0  0  0  0  0
    1.6773   -4.9164    0.1531 C   0  0  0  0  0  0  0  0  0  0  0  0
    1.9123   -4.0077   -0.9446 C   0  0  0  0  0  0  0  0  0  0  0  0
    1.5528   -2.7253   -0.8470 C   0  0  0  0  0  0  0  0  0  0  0  0
    0.0809    0.0515    1.8622 C   0  0  0  0  0  0  0  0  0  0  0  0
    0.3952   -0.5722    3.0166 C   0  0  0  0  0  0  0  0  0  0  0  0
    0.0276   -0.0056    4.3439 C   0  0  0  0  0  0  0  0  0  0  0  0
   -0.6424    1.1752    4.4222 C   0  0  0  0  0  0  0  0  0  0  0  0
   -0.9910    1.8698    3.1684 C   0  0  0  0  0  0  0  0  0  0  0  0
   -0.6541    1.3448    1.9820 C   0  0  0  0  0  0  0  0  0  0  0  0
    0.4823    0.3672   -0.9389 C   0  0  0  0  0  0  0  0  0  0  0  0
   -0.8251    0.8524   -1.5018 C   0  0  0  0  0  0  0  0  0  0  0  0
   -0.9019    1.6296   -2.5855 C   0  0  0  0  0  0  0  0  0  0  0  0
    0.3100    2.0557   -3.2951 C   0  0  0  0  0  0  0  0  0  0  0  0
    1.5093    1.6429   -2.8349 C   0  0  0  0  0  0  0  0  0  0  0  0
    1.6081    0.7704   -1.6167 C   0  0  0  0  0  0  0  0  0  0  0  0
   -0.6639    1.1544    6.9302 C   0  0  0  0  0  0  0  0  0  0  0  0
   -1.7558    2.9768    5.7158 C   0  0  0  0  0  0  0  0  0  0  0  0
   -0.5998    2.5122   -5.5653 C   0  0  0  0  0  0  0  0  0  0  0  0
    0.9297    4.1534   -4.5234 C   0  0  0  0  0  0  0  0  0  0  0  0
  1  2  1  0  0  0  0
  1 10  1  0  0  0  0
  1 16  1  0  0  0  0
  2  4  2  0  0  0  0
  2  9  1  0  0  0  0
  4  6  1  0  0  0  0
  6  7  2  0  0  0  0
  7  8  1  0  0  0  0
  8  9  2  0  0  0  0
 10 11  2  0  0  0  0
 10 15  1  0  0  0  0
 11 12  1  0  0  0  0
 12 13  2  0  0  0  0
 13  3  1  0  0  0  0
 13 14  1  0  0  0  0
 14 15  2  0  0  0  0
 16 17  2  0  0  0  0
 16 21  1  0  0  0  0
 17 18  1  0  0  0  0
 18 19  2  0  0  0  0
 19  5  1  0  0  0  0
 19 20  1  0  0  0  0
 20 21  2  0  0  0  0
 22  3  1  0  0  0  0
 23  3  1  0  0  0  0
 24  5  1  0  0  0  0
 25  5  1  0  0  0  0
M  END
>  <CHROM.1>
12.89286769,17.08191892,110.31955829,2.12550160,-54.86204904,0.21083308,0.26212271
0.46874572,-1.93410701,1.24690139,-1.08561851

>  <Name>
1q8n_lig

>  <RI>
0

>  <Rbt.Current_Directory>
/home/itssahil/PROJECTS/Mol_Feturizer/New_Systems/rnas/1q8n

>  <Rbt.Executable>
rbdock ($Id: //depot/dev/client3/rdock/2013.1/src/exe/rbdock.cxx#4 $)

>  <Rbt.Library>
libRbt.so (2013.1, Build901 2013/11/27)

>  <Rbt.Parameter_File>
/export/apps/rDock/src/rDock_2013.1_src/data/scripts/dock_solv.prm

>  <Rbt.Receptor>
prm/pocket_docking_7.prm

>  <SCORE>
-42.6234

>  <SCORE.INTER>
-44.925

>  <SCORE.INTER.CONST>
1

>  <SCORE.INTER.POLAR>
0

>  <SCORE.INTER.ROT>
5

>  <SCORE.INTER.SOLV>
9.48378

>  <SCORE.INTER.VDW>
-40.0446

>  <SCORE.INTER.norm>
-1.797

>  <SCORE.INTRA>
2.30164

>  <SCORE.INTRA.DIHEDRAL>
8.57672

>  <SCORE.INTRA.DIHEDRAL.0>
2.1627

>  <SCORE.INTRA.POLAR>
0

>  <SCORE.INTRA.POLAR.0>
0

>  <SCORE.INTRA.REPUL>
0

>  <SCORE.INTRA.REPUL.0>
0

>  <SCORE.INTRA.SOLV>
0.0129455

>  <SCORE.INTRA.SOLV.lig_0>
-5.95779

>  <SCORE.INTRA.VDW>
-1.9932

>  <SCORE.INTRA.VDW.0>
3.81702

>  <SCORE.INTRA.norm>
0.0920654

>  <SCORE.RESTR>
0

>  <SCORE.RESTR.CAVITY>
0

>  <SCORE.RESTR.norm>
0

>  <SCORE.SYSTEM>
0

>  <SCORE.SYSTEM.CONST>
0

>  <SCORE.SYSTEM.DIHEDRAL>
0

>  <SCORE.SYSTEM.SOLV>
0

>  <SCORE.SYSTEM.norm>
0

>  <SCORE.heavy>
25

>  <SCORE.norm>
-1.70494

>  <RMSD>
5.783

$$$$
1q8n_lig
 OpenBabel11021811403D
libRbt.so/2013.1/901 2013/11/27
 25 27  0  0  0  0  0  0  0  0999 V2000
    1.5967   -2.3957    0.3313 C   0  0  0  0  0  0  0  0  0  0  0  0
    1.5624   -3.2524    1.7206 C   0  0  0  0  0  0  0  0  0  0  0  0
    3.4464   -5.1077   -4.6331 N   0  0  0  0  0  0  0  0  0  0  0  0
    2.2832   -2.9239    2.8194 C   0  0  0  0  0  0  0  0  0  0  0  0
   -0.0098    3.3611   -0.1062 N   0  0  0  0  0  0  0  0  0  0  0  0
    2.2278   -3.7322    4.0593 C   0  0  0  0  0  0  0  0  0  0  0  0
    1.4390   -4.8300    4.1105 C   0  0  0  0  0  0  0  0  0  0  0  0
    0.6569   -5.1945    2.9523 C   0  0  0  0  0  0  0  0  0  0  0  0
    0.7169   -4.4587    1.8396 C   0  0  0  0  0  0  0  0  0  0  0  0
    2.1030   -3.1437   -1.0268 C   0  0  0  0  0  0  0  0  0  0  0  0
    1.9112   -4.4666   -1.2095 C   0  0  0  0  0  0  0  0  0  0  0  0
    2.3667   -5.1661   -2.4429 C   0  0  0  0  0  0  0  0  0  0  0  0
    2.9945   -4.4732   -3.4303 C   0  0  0  0  0  0  0  0  0  0  0  0
    3.2093   -3.0255   -3.2457 C   0  0  0  0  0  0  0  0  0  0  0  0
    2.7945   -2.4120   -2.1284 C   0  0  0  0  0  0  0  0  0  0  0  0
    1.1352   -0.8042    0.2761 C   0  0  0  0  0  0  0  0  0  0  0  0
    1.4443    0.0218   -0.9419 C   0  0  0  0  0  0  0  0  0  0  0  0
    1.0921    1.3055   -1.0536 C   0  0  0  0  0  0  0  0  0  0  0  0
    0.3727    1.9868    0.0290 C   0  0  0  0  0  0  0  0  0  0  0  0
    0.0759    1.2925    1.1471 C   0  0  0  0  0  0  0  0  0  0  0  0
    0.4654   -0.1514    1.2833 C   0  0  0  0  0  0  0  0  0  0  0  0
    4.7955   -4.9929   -5.0969 C   0  0  0  0  0  0  0  0  0  0  0  0
    2.5413   -5.8897   -5.4171 C   0  0  0  0  0  0  0  0  0  0  0  0
    0.5171    4.1586   -1.1761 C   0  0  0  0  0  0  0  0  0  0  0  0
   -0.9336    3.9773    0.8192 C   0  0  0  0  0  0  0  0  0  0  0  0
  1  2  1  0  0  0  0
  1 10  1  0  0  0  0
  1 16  1  0  0  0  0
  2  4  2  0  0  0  0
  2  9  1  0  0  0  0
  4  6  1  0  0  0  0
  6  7  2  0  0  0  0
  7  8  1  0  0  0  0
  8  9  2  0  0  0  0
 10 11  2  0  0  0  0
 10 15  1  0  0  0  0
 11 12  1  0  0  0  0
 12 13  2  0  0  0  0
 13  3  1  0  0  0  0
 13 14  1  0  0  0  0
 14 15  2  0  0  0  0
 16 17  2  0  0  0  0
 16 21  1  0  0  0  0
 17 18  1  0  0  0  0
 18 19  2  0  0  0  0
 19  5  1  0  0  0  0
 19 20  1  0  0  0  0
 20 21  2  0  0  0  0
 22  3  1  0  0  0  0
 23  3  1  0  0  0  0
 24  5  1  0  0  0  0
 25  5  1  0  0  0  0
M  END
>  <CHROM.1>
119.33720546,30.56283891,167.46521968,-126.70097485,-11.85116983,1.63506174
-1.97464436,-0.48754004,2.88100585,1.22403497,-0.82996169

>  <Name>
1q8n_lig

>  <RI>
0

>  <Rbt.Current_Directory>
/home/itssahil/PROJECTS/Mol_Feturizer/New_Systems/rnas/1q8n

>  <Rbt.Executable>
rbdock ($Id: //depot/dev/client3/rdock/2013.1/src/exe/rbdock.cxx#4 $)

>  <Rbt.Library>
libRbt.so (2013.1, Build901 2013/11/27)

>  <Rbt.Parameter_File>
/export/apps/rDock/src/rDock_2013.1_src/data/scripts/dock_solv.prm

>  <Rbt.Receptor>
prm/blind_docking_40.prm

>  <SCORE>
-38.0134

>  <SCORE.INTER>
-40.1959

>  <SCORE.INTER.CONST>
1

>  <SCORE.INTER.POLAR>
0

>  <SCORE.INTER.ROT>
5

>  <SCORE.INTER.SOLV>
10.7477

>  <SCORE.INTER.VDW>
-37.3132

>  <SCORE.INTER.norm>
-1.60784

>  <SCORE.INTRA>
2.18256

>  <SCORE.INTRA.DIHEDRAL>
8.76529

>  <SCORE.INTRA.DIHEDRAL.0>
2.1627

>  <SCORE.INTRA.POLAR>
0

>  <SCORE.INTRA.POLAR.0>
0

>  <SCORE.INTRA.REPUL>
0

>  <SCORE.INTRA.REPUL.0>
0

>  <SCORE.INTRA.SOLV>
0.0219169

>  <SCORE.INTRA.SOLV.lig_0>
-5.95779

>  <SCORE.INTRA.VDW>
-2.21104

>  <SCORE.INTRA.VDW.0>
3.81702

>  <SCORE.INTRA.norm>
0.0873024

>  <SCORE.RESTR>
0

>  <SCORE.RESTR.CAVITY>
0

>  <SCORE.RESTR.norm>
0

>  <SCORE.SYSTEM>
0

>  <SCORE.SYSTEM.CONST>
0

>  <SCORE.SYSTEM.DIHEDRAL>
0

>  <SCORE.SYSTEM.SOLV>
0

>  <SCORE.SYSTEM.norm>
0

>  <SCORE.heavy>
25

>  <SCORE.norm>
-1.52054

>  <RMSD>
5.804

$$$$
1q8n_lig
 OpenBabel11021811413D
libRbt.so/2013.1/901 2013/11/27
 25 27  0  0  0  0  0  0  0  0999 V2000
    0.5668   -0.4501    0.2245 C   0  0  0  0  0  0  0  0  0  0  0  0
    1.0099   -2.0183    0.1250 C   0  0  0  0  0  0  0  0  0  0  0  0
   -0.8991    1.7554    5.5544 N   0  0  0  0  0  0  0  0  0  0  0  0
    1.5841   -2.5646   -0.9735 C   0  0  0  0  0  0  0  0  0  0  0  0
    0.4925    3.2630   -4.4787 N   0  0  0  0  0  0  0  0  0  0  0  0
    1.9661   -3.9948   -1.0247 C   0  0  0  0  0  0  0  0  0  0  0  0
    1.7427   -4.7882    0.0479 C   0  0  0  0  0  0  0  0  0  0  0  0
    1.1376   -4.2244    1.2319 C   0  0  0  0  0  0  0  0  0  0  0  0
    0.7959   -2.9340    1.2651 C   0  0  0  0  0  0  0  0  0  0  0  0
    0.1666    0.1497    1.6874 C   0  0  0  0  0  0  0  0  0  0  0  0
    0.5846   -0.4438    2.8248 C   0  0  0  0  0  0  0  0  0  0  0  0
    0.2289    0.0898    4.1689 C   0  0  0  0  0  0  0  0  0  0  0  0
   -0.5363    1.2084    4.2805 C   0  0  0  0  0  0  0  0  0  0  0  0
   -0.9989    1.8695    3.0457 C   0  0  0  0  0  0  0  0  0  0  0  0
   -0.6711    1.3748    1.8438 C   0  0  0  0  0  0  0  0  0  0  0  0
    0.5155    0.5284   -1.1129 C   0  0  0  0  0  0  0  0  0  0  0  0
    0.8785    1.9826   -0.9894 C   0  0  0  0  0  0  0  0  0  0  0  0
    0.8670    2.8216   -2.0288 C   0  0  0  0  0  0  0  0  0  0  0  0
    0.4909    2.3566   -3.3689 C   0  0  0  0  0  0  0  0  0  0  0  0
    0.1503    1.0614   -3.5335 C   0  0  0  0  0  0  0  0  0  0  0  0
    0.1611    0.1087   -2.3729 C   0  0  0  0  0  0  0  0  0  0  0  0
   -0.5425    1.1218    6.7873 C   0  0  0  0  0  0  0  0  0  0  0  0
   -1.6420    2.9752    5.6279 C   0  0  0  0  0  0  0  0  0  0  0  0
   -0.2420    2.9510   -5.6710 C   0  0  0  0  0  0  0  0  0  0  0  0
    1.2223    4.5097   -4.4281 C   0  0  0  0  0  0  0  0  0  0  0  0
  1  2  1  0  0  0  0
  1 10  1  0  0  0  0
  1 16  1  0  0  0  0
  2  4  2  0  0  0  0
  2  9  1  0  0  0  0
  4  6  1  0  0  0  0
  6  7  2  0  0  0  0
  7  8  1  0  0  0  0
  8  9  2  0  0  0  0
 10 11  2  0  0  0  0
 10 15  1  0  0  0  0
 11 12  1  0  0  0  0
 12 13  2  0  0  0  0
 13  3  1  0  0  0  0
 13 14  1  0  0  0  0
 14 15  2  0  0  0  0
 16 17  2  0  0  0  0
 16 21  1  0  0  0  0
 17 18  1  0  0  0  0
 18 19  2  0  0  0  0
 19  5  1  0  0  0  0
 19 20  1  0  0  0  0
 20 21  2  0  0  0  0
 22  3  1  0  0  0  0
 23  3  1  0  0  0  0
 24  5  1  0  0  0  0
 25  5  1  0  0  0  0
M  END
>  <CHROM.1>
-167.93965975,21.34993069,-145.31816429,-3.46774466,-160.88712096,0.34212473
0.42183387,0.35644440,-1.98559436,1.28100653,-0.98037399

>  <Name>
1q8n_lig

>  <RI>
0

>  <Rbt.Current_Directory>
/home/itssahil/PROJECTS/Mol_Feturizer/New_Systems/rnas/1q8n

>  <Rbt.Executable>
rbdock ($Id: //depot/dev/client3/rdock/2013.1/src/exe/rbdock.cxx#4 $)

>  <Rbt.Library>
libRbt.so (2013.1, Build901 2013/11/27)

>  <Rbt.Parameter_File>
/export/apps/rDock/src/rDock_2013.1_src/data/scripts/dock_solv.prm

>  <Rbt.Receptor>
prm/pocket_docking_6.prm

>  <SCORE>
-45.585

>  <SCORE.INTER>
-46.5584

>  <SCORE.INTER.CONST>
1

>  <SCORE.INTER.POLAR>
0

>  <SCORE.INTER.ROT>
5

>  <SCORE.INTER.SOLV>
9.67

>  <SCORE.INTER.VDW>
-41.1956

>  <SCORE.INTER.norm>
-1.86234

>  <SCORE.INTRA>
0.973369

>  <SCORE.INTRA.DIHEDRAL>
1.41586

>  <SCORE.INTRA.DIHEDRAL.0>
2.1627

>  <SCORE.INTRA.POLAR>
0

>  <SCORE.INTRA.POLAR.0>
0

>  <SCORE.INTRA.REPUL>
0

>  <SCORE.INTRA.REPUL.0>
0

>  <SCORE.INTRA.SOLV>
0.0451865

>  <SCORE.INTRA.SOLV.lig_0>
-5.95779

>  <SCORE.INTRA.VDW>
0.242846

>  <SCORE.INTRA.VDW.0>
3.81702

>  <SCORE.INTRA.norm>
0.0389348

>  <SCORE.RESTR>
0

>  <SCORE.RESTR.CAVITY>
0

>  <SCORE.RESTR.norm>
0

>  <SCORE.SYSTEM>
0

>  <SCORE.SYSTEM.CONST>
0

>  <SCORE.SYSTEM.DIHEDRAL>
0

>  <SCORE.SYSTEM.SOLV>
0

>  <SCORE.SYSTEM.norm>
0

>  <SCORE.heavy>
25

>  <SCORE.norm>
-1.8234

>  <RMSD>
5.808

$$$$
1q8n_lig
 OpenBabel11021811413D
libRbt.so/2013.1/901 2013/11/27
 25 27  0  0  0  0  0  0  0  0999 V2000
    1.6130   -2.5661    0.0733 C   0  0  0  0  0  0  0  0  0  0  0  0
    1.4749   -3.3508    1.4983 C   0  0  0  0  0  0  0  0  0  0  0  0
    0.0296    3.1671   -0.1399 N   0  0  0  0  0  0  0  0  0  0  0  0
    0.3741   -3.2836    2.2849 C   0  0  0  0  0  0  0  0  0  0  0  0
    3.7603   -5.1060   -4.9118 N   0  0  0  0  0  0  0  0  0  0  0  0
    0.2915   -4.0072    3.5747 C   0  0  0  0  0  0  0  0  0  0  0  0
    1.3356   -4.7604    3.9901 C   0  0  0  0  0  0  0  0  0  0  0  0
    2.5164   -4.8511    3.1633 C   0  0  0  0  0  0  0  0  0  0  0  0
    2.5795   -4.1925    2.0034 C   0  0  0  0  0  0  0  0  0  0  0  0
    1.1822   -0.9942    0.0105 C   0  0  0  0  0  0  0  0  0  0  0  0
    1.4082   -0.2507   -1.0924 C   0  0  0  0  0  0  0  0  0  0  0  0
    1.0216    1.1856   -1.1675 C   0  0  0  0  0  0  0  0  0  0  0  0
    0.4191    1.7883   -0.1078 C   0  0  0  0  0  0  0  0  0  0  0  0
    0.1635    0.9874    1.1043 C   0  0  0  0  0  0  0  0  0  0  0  0
    0.5196   -0.3038    1.1557 C   0  0  0  0  0  0  0  0  0  0  0  0
    2.1729   -3.3254   -1.2901 C   0  0  0  0  0  0  0  0  0  0  0  0
    2.9087   -2.5353   -2.3369 C   0  0  0  0  0  0  0  0  0  0  0  0
    3.3933   -3.0879   -3.4523 C   0  0  0  0  0  0  0  0  0  0  0  0
    3.2270   -4.5218   -3.7170 C   0  0  0  0  0  0  0  0  0  0  0  0
    2.5686   -5.2757   -2.8122 C   0  0  0  0  0  0  0  0  0  0  0  0
    2.0209   -4.6658   -1.5540 C   0  0  0  0  0  0  0  0  0  0  0  0
    0.5033    4.0714   -1.1430 C   0  0  0  0  0  0  0  0  0  0  0  0
   -0.8625    3.6853    0.8504 C   0  0  0  0  0  0  0  0  0  0  0  0
    2.9150   -5.8657   -5.7874 C   0  0  0  0  0  0  0  0  0  0  0  0
    5.1513   -4.9436   -5.2701 C   0  0  0  0  0  0  0  0  0  0  0  0
  1  2  1  0  0  0  0
  1 10  1  0  0  0  0
  1 16  1  0  0  0  0
  2  4  2  0  0  0  0
  2  9  1  0  0  0  0
  4  6  1  0  0  0  0
  6  7  2  0  0  0  0
  7  8  1  0  0  0  0
  8  9  2  0  0  0  0
 10 11  2  0  0  0  0
 10 15  1  0  0  0  0
 11 12  1  0  0  0  0
 12 13  2  0  0  0  0
 13  3  1  0  0  0  0
 13 14  1  0  0  0  0
 14 15  2  0  0  0  0
 16 17  2  0  0  0  0
 16 21  1  0  0  0  0
 17 18  1  0  0  0  0
 18 19  2  0  0  0  0
 19  5  1  0  0  0  0
 19 20  1  0  0  0  0
 20 21  2  0  0  0  0
 22  3  1  0  0  0  0
 23  3  1  0  0  0  0
 24  5  1  0  0  0  0
 25  5  1  0  0  0  0
M  END
>  <CHROM.1>
46.87645454,172.65894668,-150.14578898,-14.29941341,-126.08301886,1.71416781
-2.08069764,-0.66716260,2.93579518,1.17933095,-0.78632452

>  <Name>
1q8n_lig

>  <RI>
0

>  <Rbt.Current_Directory>
/home/itssahil/PROJECTS/Mol_Feturizer/New_Systems/rnas/1q8n

>  <Rbt.Executable>
rbdock ($Id: //depot/dev/client3/rdock/2013.1/src/exe/rbdock.cxx#4 $)

>  <Rbt.Library>
libRbt.so (2013.1, Build901 2013/11/27)

>  <Rbt.Parameter_File>
/export/apps/rDock/src/rDock_2013.1_src/data/scripts/dock_solv.prm

>  <Rbt.Receptor>
prm/pocket_docking_6.prm

>  <SCORE>
-41.1291

>  <SCORE.INTER>
-43.9237

>  <SCORE.INTER.CONST>
1

>  <SCORE.INTER.POLAR>
0

>  <SCORE.INTER.ROT>
5

>  <SCORE.INTER.SOLV>
10.9548

>  <SCORE.INTER.VDW>
-39.8674

>  <SCORE.INTER.norm>
-1.75695

>  <SCORE.INTRA>
2.36802

>  <SCORE.INTRA.DIHEDRAL>
9.13694

>  <SCORE.INTRA.DIHEDRAL.0>
2.1627

>  <SCORE.INTRA.POLAR>
0

>  <SCORE.INTRA.POLAR.0>
0

>  <SCORE.INTRA.REPUL>
0

>  <SCORE.INTRA.REPUL.0>
0

>  <SCORE.INTRA.SOLV>
0.0291736

>  <SCORE.INTRA.SOLV.lig_0>
-5.95779

>  <SCORE.INTRA.VDW>
-2.21503

>  <SCORE.INTRA.VDW.0>
3.81702

>  <SCORE.INTRA.norm>
0.094721

>  <SCORE.RESTR>
0.426504

>  <SCORE.RESTR.CAVITY>
0.426504

>  <SCORE.RESTR.norm>
0.0170602

>  <SCORE.SYSTEM>
0

>  <SCORE.SYSTEM.CONST>
0

>  <SCORE.SYSTEM.DIHEDRAL>
0

>  <SCORE.SYSTEM.SOLV>
0

>  <SCORE.SYSTEM.norm>
0

>  <SCORE.heavy>
25

>  <SCORE.norm>
-1.64517

>  <RMSD>
5.832

$$$$
1q8n_lig
 OpenBabel11021811413D
libRbt.so/2013.1/901 2013/11/27
 25 27  0  0  0  0  0  0  0  0999 V2000
    1.6101   -2.5648    0.3249 C   0  0  0  0  0  0  0  0  0  0  0  0
    1.5763   -3.3885    1.7341 C   0  0  0  0  0  0  0  0  0  0  0  0
   -0.2050    3.1033    0.3418 N   0  0  0  0  0  0  0  0  0  0  0  0
    0.4581   -3.5430    2.4829 C   0  0  0  0  0  0  0  0  0  0  0  0
    3.3595   -5.3093   -4.7070 N   0  0  0  0  0  0  0  0  0  0  0  0
    0.4717   -4.2937    3.7597 C   0  0  0  0  0  0  0  0  0  0  0  0
    1.6246   -4.8466    4.2013 C   0  0  0  0  0  0  0  0  0  0  0  0
    2.8271   -4.6995    3.4149 C   0  0  0  0  0  0  0  0  0  0  0  0
    2.8024   -4.0187    2.2664 C   0  0  0  0  0  0  0  0  0  0  0  0
    1.1155   -1.0106    0.3250 C   0  0  0  0  0  0  0  0  0  0  0  0
    1.2352   -0.2385   -0.7750 C   0  0  0  0  0  0  0  0  0  0  0  0
    0.7890    1.1823   -0.7930 C   0  0  0  0  0  0  0  0  0  0  0  0
    0.2389    1.7409    0.3181 C   0  0  0  0  0  0  0  0  0  0  0  0
    0.0995    0.9083    1.5278 C   0  0  0  0  0  0  0  0  0  0  0  0
    0.5080   -0.3683    1.5273 C   0  0  0  0  0  0  0  0  0  0  0  0
    2.1284   -3.2678   -1.0843 C   0  0  0  0  0  0  0  0  0  0  0  0
    1.8978   -4.7357   -1.3161 C   0  0  0  0  0  0  0  0  0  0  0  0
    2.2816   -5.3606   -2.4326 C   0  0  0  0  0  0  0  0  0  0  0  0
    2.9618   -4.6310   -3.5091 C   0  0  0  0  0  0  0  0  0  0  0  0
    3.1988   -3.3124   -3.3490 C   0  0  0  0  0  0  0  0  0  0  0  0
    2.7706   -2.5990   -2.0990 C   0  0  0  0  0  0  0  0  0  0  0  0
    0.2249    4.0637   -0.6283 C   0  0  0  0  0  0  0  0  0  0  0  0
   -1.1093    3.5472    1.3570 C   0  0  0  0  0  0  0  0  0  0  0  0
    4.7346   -5.3124   -5.1163 C   0  0  0  0  0  0  0  0  0  0  0  0
    2.3970   -6.0090   -5.5277 C   0  0  0  0  0  0  0  0  0  0  0  0
  1  2  1  0  0  0  0
  1 10  1  0  0  0  0
  1 16  1  0  0  0  0
  2  4  2  0  0  0  0
  2  9  1  0  0  0  0
  4  6  1  0  0  0  0
  6  7  2  0  0  0  0
  7  8  1  0  0  0  0
  8  9  2  0  0  0  0
 10 11  2  0  0  0  0
 10 15  1  0  0  0  0
 11 12  1  0  0  0  0
 12 13  2  0  0  0  0
 13  3  1  0  0  0  0
 13 14  1  0  0  0  0
 14 15  2  0  0  0  0
 16 17  2  0  0  0  0
 16 21  1  0  0  0  0
 17 18  1  0  0  0  0
 18 19  2  0  0  0  0
 19  5  1  0  0  0  0
 19 20  1  0  0  0  0
 20 21  2  0  0  0  0
 22  3  1  0  0  0  0
 23  3  1  0  0  0  0
 24  5  1  0  0  0  0
 25  5  1  0  0  0  0
M  END
>  <CHROM.1>
56.66265027,173.75200740,32.24617392,-18.03450852,-122.19341825,1.59874209
-2.16230836,-0.37233779,3.11305675,1.21347877,-0.97875408

>  <Name>
1q8n_lig

>  <RI>
0

>  <Rbt.Current_Directory>
/home/itssahil/PROJECTS/Mol_Feturizer/New_Systems/rnas/1q8n

>  <Rbt.Executable>
rbdock ($Id: //depot/dev/client3/rdock/2013.1/src/exe/rbdock.cxx#4 $)

>  <Rbt.Library>
libRbt.so (2013.1, Build901 2013/11/27)

>  <Rbt.Parameter_File>
/export/apps/rDock/src/rDock_2013.1_src/data/scripts/dock_solv.prm

>  <Rbt.Receptor>
prm/pocket_docking_8.prm

>  <SCORE>
-39.4471

>  <SCORE.INTER>
-41.8124

>  <SCORE.INTER.CONST>
1

>  <SCORE.INTER.POLAR>
0

>  <SCORE.INTER.ROT>
5

>  <SCORE.INTER.SOLV>
10.9212

>  <SCORE.INTER.VDW>
-38.4487

>  <SCORE.INTER.norm>
-1.6725

>  <SCORE.INTRA>
2.3653

>  <SCORE.INTRA.DIHEDRAL>
10.3866

>  <SCORE.INTRA.DIHEDRAL.0>
2.1627

>  <SCORE.INTRA.POLAR>
0

>  <SCORE.INTRA.POLAR.0>
0

>  <SCORE.INTRA.REPUL>
0

>  <SCORE.INTRA.REPUL.0>
0

>  <SCORE.INTRA.SOLV>
0.0109468

>  <SCORE.INTRA.SOLV.lig_0>
-5.95779

>  <SCORE.INTRA.VDW>
-2.83347

>  <SCORE.INTRA.VDW.0>
3.81702

>  <SCORE.INTRA.norm>
0.094612

>  <SCORE.RESTR>
0

>  <SCORE.RESTR.CAVITY>
0

>  <SCORE.RESTR.norm>
0

>  <SCORE.SYSTEM>
0

>  <SCORE.SYSTEM.CONST>
0

>  <SCORE.SYSTEM.DIHEDRAL>
0

>  <SCORE.SYSTEM.SOLV>
0

>  <SCORE.SYSTEM.norm>
0

>  <SCORE.heavy>
25

>  <SCORE.norm>
-1.57788

>  <RMSD>
5.833

$$$$
1q8n_lig
 OpenBabel11021811413D
libRbt.so/2013.1/901 2013/11/27
 25 27  0  0  0  0  0  0  0  0999 V2000
    0.3920   -0.4837    0.6128 C   0  0  0  0  0  0  0  0  0  0  0  0
    0.8809   -2.0334    0.4550 C   0  0  0  0  0  0  0  0  0  0  0  0
    0.2734    2.9417   -4.2528 N   0  0  0  0  0  0  0  0  0  0  0  0
    1.4960   -2.5141   -0.6520 C   0  0  0  0  0  0  0  0  0  0  0  0
   -1.1168    1.5996    6.0254 N   0  0  0  0  0  0  0  0  0  0  0  0
    1.9189   -3.9298   -0.7571 C   0  0  0  0  0  0  0  0  0  0  0  0
    1.6923   -4.7764    0.2734 C   0  0  0  0  0  0  0  0  0  0  0  0
    1.0439   -4.2829    1.4658 C   0  0  0  0  0  0  0  0  0  0  0  0
    0.6657   -3.0049    1.5477 C   0  0  0  0  0  0  0  0  0  0  0  0
    0.3541    0.4553   -0.7203 C   0  0  0  0  0  0  0  0  0  0  0  0
   -0.7479    1.1618   -1.0470 C   0  0  0  0  0  0  0  0  0  0  0  0
   -0.8004    2.0241   -2.2600 C   0  0  0  0  0  0  0  0  0  0  0  0
    0.2819    2.1218   -3.0775 C   0  0  0  0  0  0  0  0  0  0  0  0
    1.4950    1.3568   -2.7320 C   0  0  0  0  0  0  0  0  0  0  0  0
    1.5245    0.5839   -1.6373 C   0  0  0  0  0  0  0  0  0  0  0  0
   -0.0582    0.1439    2.0798 C   0  0  0  0  0  0  0  0  0  0  0  0
    0.1707   -0.6518    3.3352 C   0  0  0  0  0  0  0  0  0  0  0  0
   -0.1599   -0.2001    4.5480 C   0  0  0  0  0  0  0  0  0  0  0  0
   -0.7762    1.1208    4.7184 C   0  0  0  0  0  0  0  0  0  0  0  0
   -1.0091    1.8734    3.6231 C   0  0  0  0  0  0  0  0  0  0  0  0
   -0.6404    1.3767    2.2547 C   0  0  0  0  0  0  0  0  0  0  0  0
    1.0163    4.1621   -4.3382 C   0  0  0  0  0  0  0  0  0  0  0  0
   -0.4934    2.5522   -5.3955 C   0  0  0  0  0  0  0  0  0  0  0  0
   -0.6661    0.9003    7.1942 C   0  0  0  0  0  0  0  0  0  0  0  0
   -1.9120    2.7936    6.2033 C   0  0  0  0  0  0  0  0  0  0  0  0
  1  2  1  0  0  0  0
  1 10  1  0  0  0  0
  1 16  1  0  0  0  0
  2  4  2  0  0  0  0
  2  9  1  0  0  0  0
  4  6  1  0  0  0  0
  6  7  2  0  0  0  0
  7  8  1  0  0  0  0
  8  9  2  0  0  0  0
 10 11  2  0  0  0  0
 10 15  1  0  0  0  0
 11 12  1  0  0  0  0
 12 13  2  0  0  0  0
 13  3  1  0  0  0  0
 13 14  1  0  0  0  0
 14 15  2  0  0  0  0
 16 17  2  0  0  0  0
 16 21  1  0  0  0  0
 17 18  1  0  0  0  0
 18 19  2  0  0  0  0
 19  5  1  0  0  0  0
 19 20  1  0  0  0  0
 20 21  2  0  0  0  0
 22  3  1  0  0  0  0
 23  3  1  0  0  0  0
 24  5  1  0  0  0  0
 25  5  1  0  0  0  0
M  END
>  <CHROM.1>
13.15287034,128.85761137,9.08769788,108.50389515,10.25473960,0.17295529,0.27998199
0.70521923,-1.16186051,-1.22969422,2.10252521

>  <Name>
1q8n_lig

>  <RI>
0

>  <Rbt.Current_Directory>
/home/itssahil/PROJECTS/Mol_Feturizer/New_Systems/rnas/1q8n

>  <Rbt.Executable>
rbdock ($Id: //depot/dev/client3/rdock/2013.1/src/exe/rbdock.cxx#4 $)

>  <Rbt.Library>
libRbt.so (2013.1, Build901 2013/11/27)

>  <Rbt.Parameter_File>
/export/apps/rDock/src/rDock_2013.1_src/data/scripts/dock_solv.prm

>  <Rbt.Receptor>
prm/pocket_docking_5.prm

>  <SCORE>
-41.5051

>  <SCORE.INTER>
-44.9109

>  <SCORE.INTER.CONST>
1

>  <SCORE.INTER.POLAR>
0

>  <SCORE.INTER.ROT>
5

>  <SCORE.INTER.SOLV>
8.68883

>  <SCORE.INTER.VDW>
-39.7702

>  <SCORE.INTER.norm>
-1.79644

>  <SCORE.INTRA>
3.40584

>  <SCORE.INTRA.DIHEDRAL>
11.9115

>  <SCORE.INTRA.DIHEDRAL.0>
2.1627

>  <SCORE.INTRA.POLAR>
0

>  <SCORE.INTRA.POLAR.0>
0

>  <SCORE.INTRA.REPUL>
0

>  <SCORE.INTRA.REPUL.0>
0

>  <SCORE.INTRA.SOLV>
0.0368866

>  <SCORE.INTRA.SOLV.lig_0>
-5.95779

>  <SCORE.INTRA.VDW>
-2.56833

>  <SCORE.INTRA.VDW.0>
3.81702

>  <SCORE.INTRA.norm>
0.136233

>  <SCORE.RESTR>
0

>  <SCORE.RESTR.CAVITY>
0

>  <SCORE.RESTR.norm>
0

>  <SCORE.SYSTEM>
0

>  <SCORE.SYSTEM.CONST>
0

>  <SCORE.SYSTEM.DIHEDRAL>
0

>  <SCORE.SYSTEM.SOLV>
0

>  <SCORE.SYSTEM.norm>
0

>  <SCORE.heavy>
25

>  <SCORE.norm>
-1.6602

>  <RMSD>
5.840

$$$$
1q8n_lig
 OpenBabel11021811413D
libRbt.so/2013.1/901 2013/11/27
 25 27  0  0  0  0  0  0  0  0999 V2000
   -0.1606    1.0380    0.8511 C   0  0  0  0  0  0  0  0  0  0  0  0
   -0.8177    1.9485    2.0363 C   0  0  0  0  0  0  0  0  0  0  0  0
    0.3471    3.3993   -4.5884 N   0  0  0  0  0  0  0  0  0  0  0  0
   -0.7594    1.6213    3.3495 C   0  0  0  0  0  0  0  0  0  0  0  0
    1.7490   -4.5916    1.6084 N   0  0  0  0  0  0  0  0  0  0  0  0
   -1.3743    2.4730    4.3938 C   0  0  0  0  0  0  0  0  0  0  0  0
   -2.0131    3.6120    4.0411 C   0  0  0  0  0  0  0  0  0  0  0  0
   -2.0810    3.9830    2.6469 C   0  0  0  0  0  0  0  0  0  0  0  0
   -1.5244    3.2058    1.7146 C   0  0  0  0  0  0  0  0  0  0  0  0
   -0.0198    1.6897   -0.6374 C   0  0  0  0  0  0  0  0  0  0  0  0
    0.6689    2.8324   -0.8382 C   0  0  0  0  0  0  0  0  0  0  0  0
    0.8078    3.4417   -2.1900 C   0  0  0  0  0  0  0  0  0  0  0  0
    0.2355    2.8470   -3.2708 C   0  0  0  0  0  0  0  0  0  0  0  0
   -0.5189    1.5958   -3.0671 C   0  0  0  0  0  0  0  0  0  0  0  0
   -0.6356    1.0620   -1.8431 C   0  0  0  0  0  0  0  0  0  0  0  0
    0.3567   -0.5127    1.1274 C   0  0  0  0  0  0  0  0  0  0  0  0
    0.6029   -1.4365   -0.0334 C   0  0  0  0  0  0  0  0  0  0  0  0
    1.0290   -2.6932    0.1202 C   0  0  0  0  0  0  0  0  0  0  0  0
    1.2818   -3.2456    1.4561 C   0  0  0  0  0  0  0  0  0  0  0  0
    1.0706   -2.4602    2.5327 C   0  0  0  0  0  0  0  0  0  0  0  0
    0.5931   -1.0455    2.3723 C   0  0  0  0  0  0  0  0  0  0  0  0
    1.1352    4.5615   -4.8652 C   0  0  0  0  0  0  0  0  0  0  0  0
   -0.3402    2.7893   -5.6842 C   0  0  0  0  0  0  0  0  0  0  0  0
    1.5899   -5.5394    0.5432 C   0  0  0  0  0  0  0  0  0  0  0  0
    2.3940   -5.0286    2.8260 C   0  0  0  0  0  0  0  0  0  0  0  0
  1  2  1  0  0  0  0
  1 10  1  0  0  0  0
  1 16  1  0  0  0  0
  2  4  2  0  0  0  0
  2  9  1  0  0  0  0
  4  6  1  0  0  0  0
  6  7  2  0  0  0  0
  7  8  1  0  0  0  0
  8  9  2  0  0  0  0
 10 11  2  0  0  0  0
 10 15  1  0  0  0  0
 11 12  1  0  0  0  0
 12 13  2  0  0  0  0
 13  3  1  0  0  0  0
 13 14  1  0  0  0  0
 14 15  2  0  0  0  0
 16 17  2  0  0  0  0
 16 21  1  0  0  0  0
 17 18  1  0  0  0  0
 18 19  2  0  0  0  0
 19  5  1  0  0  0  0
 19 20  1  0  0  0  0
 20 21  2  0  0  0  0
 22  3  1  0  0  0  0
 23  3  1  0  0  0  0
 24  5  1  0  0  0  0
 25  5  1  0  0  0  0
M  END
>  <CHROM.1>
-167.14317495,57.47722692,163.45198052,4.02304804,-19.26458535,0.17472750
0.58096183,0.12640384,1.16647847,-1.17775218,2.12771565

>  <Name>
1q8n_lig

>  <RI>
0

>  <Rbt.Current_Directory>
/home/itssahil/PROJECTS/Mol_Feturizer/New_Systems/rnas/1q8n

>  <Rbt.Executable>
rbdock ($Id: //depot/dev/client3/rdock/2013.1/src/exe/rbdock.cxx#4 $)

>  <Rbt.Library>
libRbt.so (2013.1, Build901 2013/11/27)

>  <Rbt.Parameter_File>
/export/apps/rDock/src/rDock_2013.1_src/data/scripts/dock_solv.prm

>  <Rbt.Receptor>
prm/pocket_docking_6.prm

>  <SCORE>
-51.7466

>  <SCORE.INTER>
-52.1161

>  <SCORE.INTER.CONST>
1

>  <SCORE.INTER.POLAR>
0

>  <SCORE.INTER.ROT>
5

>  <SCORE.INTER.SOLV>
11.7006

>  <SCORE.INTER.VDW>
-45.5776

>  <SCORE.INTER.norm>
-2.08464

>  <SCORE.INTRA>
0.369527

>  <SCORE.INTRA.DIHEDRAL>
1.45388

>  <SCORE.INTRA.DIHEDRAL.0>
2.1627

>  <SCORE.INTRA.POLAR>
0

>  <SCORE.INTRA.POLAR.0>
0

>  <SCORE.INTRA.REPUL>
0

>  <SCORE.INTRA.REPUL.0>
0

>  <SCORE.INTRA.SOLV>
0.0241368

>  <SCORE.INTRA.SOLV.lig_0>
-5.95779

>  <SCORE.INTRA.VDW>
-0.369483

>  <SCORE.INTRA.VDW.0>
3.81702

>  <SCORE.INTRA.norm>
0.0147811

>  <SCORE.RESTR>
0

>  <SCORE.RESTR.CAVITY>
0

>  <SCORE.RESTR.norm>
0

>  <SCORE.SYSTEM>
0

>  <SCORE.SYSTEM.CONST>
0

>  <SCORE.SYSTEM.DIHEDRAL>
0

>  <SCORE.SYSTEM.SOLV>
0

>  <SCORE.SYSTEM.norm>
0

>  <SCORE.heavy>
25

>  <SCORE.norm>
-2.06986

>  <RMSD>
5.840

$$$$
1q8n_lig
 OpenBabel11021811413D
libRbt.so/2013.1/901 2013/11/27
 25 27  0  0  0  0  0  0  0  0999 V2000
    1.2619   -2.4595    0.6228 C   0  0  0  0  0  0  0  0  0  0  0  0
    1.2871   -3.1282    2.1120 C   0  0  0  0  0  0  0  0  0  0  0  0
   -0.1919    3.2922    0.1466 N   0  0  0  0  0  0  0  0  0  0  0  0
    1.8001   -4.3546    2.3721 C   0  0  0  0  0  0  0  0  0  0  0  0
    2.6071   -5.4309   -4.4045 N   0  0  0  0  0  0  0  0  0  0  0  0
    1.7982   -4.9276    3.7380 C   0  0  0  0  0  0  0  0  0  0  0  0
    1.2744   -4.2173    4.7633 C   0  0  0  0  0  0  0  0  0  0  0  0
    0.7283   -2.9046    4.5091 C   0  0  0  0  0  0  0  0  0  0  0  0
    0.7342   -2.3998    3.2729 C   0  0  0  0  0  0  0  0  0  0  0  0
    0.8679   -0.8824    0.4893 C   0  0  0  0  0  0  0  0  0  0  0  0
    1.4567   -0.0899   -0.4302 C   0  0  0  0  0  0  0  0  0  0  0  0
    1.1095    1.3519   -0.5663 C   0  0  0  0  0  0  0  0  0  0  0  0
    0.1725    1.9098    0.2462 C   0  0  0  0  0  0  0  0  0  0  0  0
   -0.4815    1.0551    1.2551 C   0  0  0  0  0  0  0  0  0  0  0  0
   -0.1557   -0.2404    1.3653 C   0  0  0  0  0  0  0  0  0  0  0  0
    1.6223   -3.3399   -0.7350 C   0  0  0  0  0  0  0  0  0  0  0  0
    1.8043   -2.6396   -2.0534 C   0  0  0  0  0  0  0  0  0  0  0  0
    2.1047   -3.2886   -3.1816 C   0  0  0  0  0  0  0  0  0  0  0  0
    2.2742   -4.7463   -3.1905 C   0  0  0  0  0  0  0  0  0  0  0  0
    2.1157   -5.4242   -2.0347 C   0  0  0  0  0  0  0  0  0  0  0  0
    1.7795   -4.7052   -0.7600 C   0  0  0  0  0  0  0  0  0  0  0  0
   -1.1683    3.8886    1.0065 C   0  0  0  0  0  0  0  0  0  0  0  0
    0.4249    4.1293   -0.8353 C   0  0  0  0  0  0  0  0  0  0  0  0
    1.5880   -6.0948   -5.1655 C   0  0  0  0  0  0  0  0  0  0  0  0
    3.9656   -5.4675   -4.8969 C   0  0  0  0  0  0  0  0  0  0  0  0
  1  2  1  0  0  0  0
  1 10  1  0  0  0  0
  1 16  1  0  0  0  0
  2  4  2  0  0  0  0
  2  9  1  0  0  0  0
  4  6  1  0  0  0  0
  6  7  2  0  0  0  0
  7  8  1  0  0  0  0
  8  9  2  0  0  0  0
 10 11  2  0  0  0  0
 10 15  1  0  0  0  0
 11 12  1  0  0  0  0
 12 13  2  0  0  0  0
 13  3  1  0  0  0  0
 13 14  1  0  0  0  0
 14 15  2  0  0  0  0
 16 17  2  0  0  0  0
 16 21  1  0  0  0  0
 17 18  1  0  0  0  0
 18 19  2  0  0  0  0
 19  5  1  0  0  0  0
 19 20  1  0  0  0  0
 20 21  2  0  0  0  0
 22  3  1  0  0  0  0
 23  3  1  0  0  0  0
 24  5  1  0  0  0  0
 25  5  1  0  0  0  0
M  END
>  <CHROM.1>
-169.07651343,144.07686928,-170.12445421,-179.41571272,-99.65704269,1.23014751
-2.01058284,-0.16253906,-0.02656725,-1.28482942,2.07262884

>  <Name>
1q8n_lig

>  <RI>
0

>  <Rbt.Current_Directory>
/home/itssahil/PROJECTS/Mol_Feturizer/New_Systems/rnas/1q8n

>  <Rbt.Executable>
rbdock ($Id: //depot/dev/client3/rdock/2013.1/src/exe/rbdock.cxx#4 $)

>  <Rbt.Library>
libRbt.so (2013.1, Build901 2013/11/27)

>  <Rbt.Parameter_File>
/export/apps/rDock/src/rDock_2013.1_src/data/scripts/dock_solv.prm

>  <Rbt.Receptor>
prm/pocket_docking_7.prm

>  <SCORE>
-35.5388

>  <SCORE.INTER>
-39.5234

>  <SCORE.INTER.CONST>
1

>  <SCORE.INTER.POLAR>
0

>  <SCORE.INTER.ROT>
5

>  <SCORE.INTER.SOLV>
10.1049

>  <SCORE.INTER.VDW>
-36.6506

>  <SCORE.INTER.norm>
-1.58094

>  <SCORE.INTRA>
3.94015

>  <SCORE.INTRA.DIHEDRAL>
12.4375

>  <SCORE.INTRA.DIHEDRAL.0>
2.1627

>  <SCORE.INTRA.POLAR>
0

>  <SCORE.INTRA.POLAR.0>
0

>  <SCORE.INTRA.REPUL>
0

>  <SCORE.INTRA.REPUL.0>
0

>  <SCORE.INTRA.SOLV>
0.0544265

>  <SCORE.INTRA.SOLV.lig_0>
-5.95779

>  <SCORE.INTRA.VDW>
-2.30583

>  <SCORE.INTRA.VDW.0>
3.81702

>  <SCORE.INTRA.norm>
0.157606

>  <SCORE.RESTR>
0.0445048

>  <SCORE.RESTR.CAVITY>
0.0445048

>  <SCORE.RESTR.norm>
0.00178019

>  <SCORE.SYSTEM>
0

>  <SCORE.SYSTEM.CONST>
0

>  <SCORE.SYSTEM.DIHEDRAL>
0

>  <SCORE.SYSTEM.SOLV>
0

>  <SCORE.SYSTEM.norm>
0

>  <SCORE.heavy>
25

>  <SCORE.norm>
-1.42155

>  <RMSD>
5.845

$$$$
1q8n_lig
 OpenBabel11021811403D
libRbt.so/2013.1/901 2013/11/27
 25 27  0  0  0  0  0  0  0  0999 V2000
   -0.1676    1.0635    0.8777 C   0  0  0  0  0  0  0  0  0  0  0  0
   -0.8384    1.9743    2.0550 C   0  0  0  0  0  0  0  0  0  0  0  0
    0.3550    3.4040   -4.5694 N   0  0  0  0  0  0  0  0  0  0  0  0
   -0.7794    1.6571    3.3706 C   0  0  0  0  0  0  0  0  0  0  0  0
    1.7795   -4.5482    1.6716 N   0  0  0  0  0  0  0  0  0  0  0  0
   -1.4069    2.5086    4.4074 C   0  0  0  0  0  0  0  0  0  0  0  0
   -2.0585    3.6374    4.0451 C   0  0  0  0  0  0  0  0  0  0  0  0
   -2.1275    3.9978    2.6483 C   0  0  0  0  0  0  0  0  0  0  0  0
   -1.5594    3.2208    1.7227 C   0  0  0  0  0  0  0  0  0  0  0  0
   -0.0229    1.7096   -0.6129 C   0  0  0  0  0  0  0  0  0  0  0  0
    0.6288    2.8745   -0.8099 C   0  0  0  0  0  0  0  0  0  0  0  0
    0.7706    3.4790   -2.1635 C   0  0  0  0  0  0  0  0  0  0  0  0
    0.2391    2.8571   -3.2498 C   0  0  0  0  0  0  0  0  0  0  0  0
   -0.4745    1.5816   -3.0503 C   0  0  0  0  0  0  0  0  0  0  0  0
   -0.5945    1.0523   -1.8247 C   0  0  0  0  0  0  0  0  0  0  0  0
    0.3596   -0.4821    1.1641 C   0  0  0  0  0  0  0  0  0  0  0  0
    0.6192   -1.4093    0.0089 C   0  0  0  0  0  0  0  0  0  0  0  0
    1.0538   -2.6620    0.1706 C   0  0  0  0  0  0  0  0  0  0  0  0
    1.3031   -3.2064    1.5105 C   0  0  0  0  0  0  0  0  0  0  0  0
    1.0801   -2.4177    2.5822 C   0  0  0  0  0  0  0  0  0  0  0  0
    0.5931   -1.0074    2.4126 C   0  0  0  0  0  0  0  0  0  0  0  0
   -0.2983    2.8171   -5.6995 C   0  0  0  0  0  0  0  0  0  0  0  0
    1.1426    4.5761   -4.7951 C   0  0  0  0  0  0  0  0  0  0  0  0
    1.6165   -5.5072    0.6170 C   0  0  0  0  0  0  0  0  0  0  0  0
    2.4376   -4.9698    2.8876 C   0  0  0  0  0  0  0  0  0  0  0  0
  1  2  1  0  0  0  0
  1 10  1  0  0  0  0
  1 16  1  0  0  0  0
  2  4  2  0  0  0  0
  2  9  1  0  0  0  0
  4  6  1  0  0  0  0
  6  7  2  0  0  0  0
  7  8  1  0  0  0  0
  8  9  2  0  0  0  0
 10 11  2  0  0  0  0
 10 15  1  0  0  0  0
 11 12  1  0  0  0  0
 12 13  2  0  0  0  0
 13  3  1  0  0  0  0
 13 14  1  0  0  0  0
 14 15  2  0  0  0  0
 16 17  2  0  0  0  0
 16 21  1  0  0  0  0
 17 18  1  0  0  0  0
 18 19  2  0  0  0  0
 19  5  1  0  0  0  0
 19 20  1  0  0  0  0
 20 21  2  0  0  0  0
 22  3  1  0  0  0  0
 23  3  1  0  0  0  0
 24  5  1  0  0  0  0
 25  5  1  0  0  0  0
M  END
>  <CHROM.1>
-166.78458820,55.73854379,163.43427221,-174.50536295,-20.14013876,0.17690823
0.60729453,0.15786166,1.16962136,-1.16847036,2.12743790

>  <Name>
1q8n_lig

>  <RI>
0

>  <Rbt.Current_Directory>
/home/itssahil/PROJECTS/Mol_Feturizer/New_Systems/rnas/1q8n

>  <Rbt.Executable>
rbdock ($Id: //depot/dev/client3/rdock/2013.1/src/exe/rbdock.cxx#4 $)

>  <Rbt.Library>
libRbt.so (2013.1, Build901 2013/11/27)

>  <Rbt.Parameter_File>
/export/apps/rDock/src/rDock_2013.1_src/data/scripts/dock_solv.prm

>  <Rbt.Receptor>
prm/blind_docking_60.prm

>  <SCORE>
-51.7166

>  <SCORE.INTER>
-52.1347

>  <SCORE.INTER.CONST>
1

>  <SCORE.INTER.POLAR>
0

>  <SCORE.INTER.ROT>
5

>  <SCORE.INTER.SOLV>
11.7126

>  <SCORE.INTER.VDW>
-45.594

>  <SCORE.INTER.norm>
-2.08539

>  <SCORE.INTRA>
0.418142

>  <SCORE.INTRA.DIHEDRAL>
1.63241

>  <SCORE.INTRA.DIHEDRAL.0>
2.1627

>  <SCORE.INTRA.POLAR>
0

>  <SCORE.INTRA.POLAR.0>
0

>  <SCORE.INTRA.REPUL>
0

>  <SCORE.INTRA.REPUL.0>
0

>  <SCORE.INTRA.SOLV>
0.0261287

>  <SCORE.INTRA.SOLV.lig_0>
-5.95779

>  <SCORE.INTRA.VDW>
-0.411125

>  <SCORE.INTRA.VDW.0>
3.81702

>  <SCORE.INTRA.norm>
0.0167257

>  <SCORE.RESTR>
0

>  <SCORE.RESTR.CAVITY>
0

>  <SCORE.RESTR.norm>
0

>  <SCORE.SYSTEM>
0

>  <SCORE.SYSTEM.CONST>
0

>  <SCORE.SYSTEM.DIHEDRAL>
0

>  <SCORE.SYSTEM.SOLV>
0

>  <SCORE.SYSTEM.norm>
0

>  <SCORE.heavy>
25

>  <SCORE.norm>
-2.06866

>  <RMSD>
5.850

$$$$
1q8n_lig
 OpenBabel11021811413D
libRbt.so/2013.1/901 2013/11/27
 25 27  0  0  0  0  0  0  0  0999 V2000
    0.8549   -0.8428    0.3459 C   0  0  0  0  0  0  0  0  0  0  0  0
    1.2154   -2.3950   -0.0091 C   0  0  0  0  0  0  0  0  0  0  0  0
    0.5227    3.0573   -4.1374 N   0  0  0  0  0  0  0  0  0  0  0  0
    1.0287   -3.4221    0.8541 C   0  0  0  0  0  0  0  0  0  0  0  0
   -0.3101    1.0891    5.8978 N   0  0  0  0  0  0  0  0  0  0  0  0
    1.3748   -4.8165    0.4942 C   0  0  0  0  0  0  0  0  0  0  0  0
    1.8907   -5.0866   -0.7268 C   0  0  0  0  0  0  0  0  0  0  0  0
    2.0916   -4.0071   -1.6650 C   0  0  0  0  0  0  0  0  0  0  0  0
    1.7774   -2.7537   -1.3280 C   0  0  0  0  0  0  0  0  0  0  0  0
    0.7630    0.2300   -0.8792 C   0  0  0  0  0  0  0  0  0  0  0  0
    0.8412    1.5579   -0.6533 C   0  0  0  0  0  0  0  0  0  0  0  0
    0.7593    2.5517   -1.7595 C   0  0  0  0  0  0  0  0  0  0  0  0
    0.6039    2.1342   -3.0443 C   0  0  0  0  0  0  0  0  0  0  0  0
    0.5190    0.6851   -3.3070 C   0  0  0  0  0  0  0  0  0  0  0  0
    0.5927   -0.1957   -2.2994 C   0  0  0  0  0  0  0  0  0  0  0  0
    0.5860   -0.3441    1.9041 C   0  0  0  0  0  0  0  0  0  0  0  0
   -0.4217    0.7377    2.1792 C   0  0  0  0  0  0  0  0  0  0  0  0
   -0.6920    1.1778    3.4111 C   0  0  0  0  0  0  0  0  0  0  0  0
   -0.0043    0.6169    4.5799 C   0  0  0  0  0  0  0  0  0  0  0  0
    0.9142   -0.3526    4.3879 C   0  0  0  0  0  0  0  0  0  0  0  0
    1.2253   -0.8563    3.0079 C   0  0  0  0  0  0  0  0  0  0  0  0
   -0.1720    2.7466   -5.3496 C   0  0  0  0  0  0  0  0  0  0  0  0
    1.1464    4.3407   -4.0423 C   0  0  0  0  0  0  0  0  0  0  0  0
   -1.4653    1.9092    6.1244 C   0  0  0  0  0  0  0  0  0  0  0  0
    0.5250    0.7515    7.0283 C   0  0  0  0  0  0  0  0  0  0  0  0
  1  2  1  0  0  0  0
  1 10  1  0  0  0  0
  1 16  1  0  0  0  0
  2  4  2  0  0  0  0
  2  9  1  0  0  0  0
  4  6  1  0  0  0  0
  6  7  2  0  0  0  0
  7  8  1  0  0  0  0
  8  9  2  0  0  0  0
 10 11  2  0  0  0  0
 10 15  1  0  0  0  0
 11 12  1  0  0  0  0
 12 13  2  0  0  0  0
 13  3  1  0  0  0  0
 13 14  1  0  0  0  0
 14 15  2  0  0  0  0
 16 17  2  0  0  0  0
 16 21  1  0  0  0  0
 17 18  1  0  0  0  0
 18 19  2  0  0  0  0
 19  5  1  0  0  0  0
 19 20  1  0  0  0  0
 20 21  2  0  0  0  0
 22  3  1  0  0  0  0
 23  3  1  0  0  0  0
 24  5  1  0  0  0  0
 25  5  1  0  0  0  0
M  END
>  <CHROM.1>
-164.61374106,-161.37933051,-145.78381820,-153.09300771,12.60956246,0.62807754
0.01255045,0.45431814,-1.23448147,-1.31898940,2.04492869

>  <Name>
1q8n_lig

>  <RI>
0

>  <Rbt.Current_Directory>
/home/itssahil/PROJECTS/Mol_Feturizer/New_Systems/rnas/1q8n

>  <Rbt.Executable>
rbdock ($Id: //depot/dev/client3/rdock/2013.1/src/exe/rbdock.cxx#4 $)

>  <Rbt.Library>
libRbt.so (2013.1, Build901 2013/11/27)

>  <Rbt.Parameter_File>
/export/apps/rDock/src/rDock_2013.1_src/data/scripts/dock_solv.prm

>  <Rbt.Receptor>
prm/pocket_docking_7.prm

>  <SCORE>
-41.1693

>  <SCORE.INTER>
-42.317

>  <SCORE.INTER.CONST>
1

>  <SCORE.INTER.POLAR>
0

>  <SCORE.INTER.ROT>
5

>  <SCORE.INTER.SOLV>
8.73474

>  <SCORE.INTER.VDW>
-38.0562

>  <SCORE.INTER.norm>
-1.69268

>  <SCORE.INTRA>
1.1477

>  <SCORE.INTRA.DIHEDRAL>
3.23102

>  <SCORE.INTRA.DIHEDRAL.0>
2.1627

>  <SCORE.INTRA.POLAR>
0

>  <SCORE.INTRA.POLAR.0>
0

>  <SCORE.INTRA.REPUL>
0

>  <SCORE.INTRA.REPUL.0>
0

>  <SCORE.INTRA.SOLV>
0.046262

>  <SCORE.INTRA.SOLV.lig_0>
-5.95779

>  <SCORE.INTRA.VDW>
-0.490936

>  <SCORE.INTRA.VDW.0>
3.81702

>  <SCORE.INTRA.norm>
0.0459082

>  <SCORE.RESTR>
0

>  <SCORE.RESTR.CAVITY>
0

>  <SCORE.RESTR.norm>
0

>  <SCORE.SYSTEM>
0

>  <SCORE.SYSTEM.CONST>
0

>  <SCORE.SYSTEM.DIHEDRAL>
0

>  <SCORE.SYSTEM.SOLV>
0

>  <SCORE.SYSTEM.norm>
0

>  <SCORE.heavy>
25

>  <SCORE.norm>
-1.64677

>  <RMSD>
5.853

$$$$
1q8n_lig
 OpenBabel11021811403D
libRbt.so/2013.1/901 2013/11/27
 25 27  0  0  0  0  0  0  0  0999 V2000
    0.6017   -0.5235    0.2972 C   0  0  0  0  0  0  0  0  0  0  0  0
    1.0057   -2.1003    0.1719 C   0  0  0  0  0  0  0  0  0  0  0  0
   -0.7478    1.6081    5.6877 N   0  0  0  0  0  0  0  0  0  0  0  0
    1.5383   -2.6489   -0.9463 C   0  0  0  0  0  0  0  0  0  0  0  0
    0.5399    3.2671   -4.3440 N   0  0  0  0  0  0  0  0  0  0  0  0
    1.8857   -4.0868   -1.0206 C   0  0  0  0  0  0  0  0  0  0  0  0
    1.6722   -4.8854    0.0502 C   0  0  0  0  0  0  0  0  0  0  0  0
    1.1114   -4.3194    1.2549 C   0  0  0  0  0  0  0  0  0  0  0  0
    0.8006   -3.0219    1.3088 C   0  0  0  0  0  0  0  0  0  0  0  0
    0.2300    0.0652    1.7722 C   0  0  0  0  0  0  0  0  0  0  0  0
   -0.5912    1.1261    1.9151 C   0  0  0  0  0  0  0  0  0  0  0  0
   -0.9415    1.6770    3.2537 C   0  0  0  0  0  0  0  0  0  0  0  0
   -0.4342    1.1102    4.3810 C   0  0  0  0  0  0  0  0  0  0  0  0
    0.4634   -0.0520    4.2406 C   0  0  0  0  0  0  0  0  0  0  0  0
    0.7698   -0.5338    3.0279 C   0  0  0  0  0  0  0  0  0  0  0  0
    0.5614    0.4746   -1.0260 C   0  0  0  0  0  0  0  0  0  0  0  0
    0.7760    1.9531   -0.8538 C   0  0  0  0  0  0  0  0  0  0  0  0
    0.7655    2.8096   -1.8788 C   0  0  0  0  0  0  0  0  0  0  0  0
    0.5383    2.3407   -3.2508 C   0  0  0  0  0  0  0  0  0  0  0  0
    0.3341    1.0235   -3.4599 C   0  0  0  0  0  0  0  0  0  0  0  0
    0.3453    0.0511   -2.3157 C   0  0  0  0  0  0  0  0  0  0  0  0
   -1.6598    2.6918    5.8935 C   0  0  0  0  0  0  0  0  0  0  0  0
   -0.1452    1.0214    6.8443 C   0  0  0  0  0  0  0  0  0  0  0  0
   -0.1858    2.9717   -5.5459 C   0  0  0  0  0  0  0  0  0  0  0  0
    1.2609    4.5175   -4.2668 C   0  0  0  0  0  0  0  0  0  0  0  0
  1  2  1  0  0  0  0
  1 10  1  0  0  0  0
  1 16  1  0  0  0  0
  2  4  2  0  0  0  0
  2  9  1  0  0  0  0
  4  6  1  0  0  0  0
  6  7  2  0  0  0  0
  7  8  1  0  0  0  0
  8  9  2  0  0  0  0
 10 11  2  0  0  0  0
 10 15  1  0  0  0  0
 11 12  1  0  0  0  0
 12 13  2  0  0  0  0
 13  3  1  0  0  0  0
 13 14  1  0  0  0  0
 14 15  2  0  0  0  0
 16 17  2  0  0  0  0
 16 21  1  0  0  0  0
 17 18  1  0  0  0  0
 18 19  2  0  0  0  0
 19  5  1  0  0  0  0
 19 20  1  0  0  0  0
 20 21  2  0  0  0  0
 22  3  1  0  0  0  0
 23  3  1  0  0  0  0
 24  5  1  0  0  0  0
 25  5  1  0  0  0  0
M  END
>  <CHROM.1>
-168.92747594,-153.26492721,-153.69826504,2.89966161,-154.44347603,0.40255988
0.33465624,0.45646420,-1.17166388,-1.30245109,2.16394341

>  <Name>
1q8n_lig

>  <RI>
0

>  <Rbt.Current_Directory>
/home/itssahil/PROJECTS/Mol_Feturizer/New_Systems/rnas/1q8n

>  <Rbt.Executable>
rbdock ($Id: //depot/dev/client3/rdock/2013.1/src/exe/rbdock.cxx#4 $)

>  <Rbt.Library>
libRbt.so (2013.1, Build901 2013/11/27)

>  <Rbt.Parameter_File>
/export/apps/rDock/src/rDock_2013.1_src/data/scripts/dock_solv.prm

>  <Rbt.Receptor>
prm/blind_docking_60.prm

>  <SCORE>
-44.5844

>  <SCORE.INTER>
-45.5406

>  <SCORE.INTER.CONST>
1

>  <SCORE.INTER.POLAR>
0

>  <SCORE.INTER.ROT>
5

>  <SCORE.INTER.SOLV>
9.36502

>  <SCORE.INTER.VDW>
-40.4154

>  <SCORE.INTER.norm>
-1.82162

>  <SCORE.INTRA>
0.956121

>  <SCORE.INTRA.DIHEDRAL>
2.41331

>  <SCORE.INTRA.DIHEDRAL.0>
2.1627

>  <SCORE.INTRA.POLAR>
0

>  <SCORE.INTRA.POLAR.0>
0

>  <SCORE.INTRA.REPUL>
0

>  <SCORE.INTRA.REPUL.0>
0

>  <SCORE.INTRA.SOLV>
0.0493702

>  <SCORE.INTRA.SOLV.lig_0>
-5.95779

>  <SCORE.INTRA.VDW>
-0.275218

>  <SCORE.INTRA.VDW.0>
3.81702

>  <SCORE.INTRA.norm>
0.0382448

>  <SCORE.RESTR>
0

>  <SCORE.RESTR.CAVITY>
0

>  <SCORE.RESTR.norm>
0

>  <SCORE.SYSTEM>
0

>  <SCORE.SYSTEM.CONST>
0

>  <SCORE.SYSTEM.DIHEDRAL>
0

>  <SCORE.SYSTEM.SOLV>
0

>  <SCORE.SYSTEM.norm>
0

>  <SCORE.heavy>
25

>  <SCORE.norm>
-1.78338

>  <RMSD>
5.859

$$$$
1q8n_lig
 OpenBabel11021811413D
libRbt.so/2013.1/901 2013/11/27
 25 27  0  0  0  0  0  0  0  0999 V2000
    1.5454   -2.6001    0.2943 C   0  0  0  0  0  0  0  0  0  0  0  0
    1.4621   -3.3836    1.7242 C   0  0  0  0  0  0  0  0  0  0  0  0
   -0.1155    3.1113    0.0868 N   0  0  0  0  0  0  0  0  0  0  0  0
    0.3739   -3.3540    2.5304 C   0  0  0  0  0  0  0  0  0  0  0  0
    3.5968   -5.1183   -4.7419 N   0  0  0  0  0  0  0  0  0  0  0  0
    0.3414   -4.0749    3.8239 C   0  0  0  0  0  0  0  0  0  0  0  0
    1.4199   -4.7874    4.2228 C   0  0  0  0  0  0  0  0  0  0  0  0
    2.5882   -4.8378    3.3751 C   0  0  0  0  0  0  0  0  0  0  0  0
    2.6060   -4.1820    2.2120 C   0  0  0  0  0  0  0  0  0  0  0  0
    1.0865   -1.0359    0.2412 C   0  0  0  0  0  0  0  0  0  0  0  0
    0.3055   -0.5030    1.2038 C   0  0  0  0  0  0  0  0  0  0  0  0
   -0.1231    0.9228    1.1715 C   0  0  0  0  0  0  0  0  0  0  0  0
    0.2730    1.7336    0.1541 C   0  0  0  0  0  0  0  0  0  0  0  0
    1.1290    1.1657   -0.9046 C   0  0  0  0  0  0  0  0  0  0  0  0
    1.5041   -0.1204   -0.8610 C   0  0  0  0  0  0  0  0  0  0  0  0
    2.0782   -3.3531   -1.0833 C   0  0  0  0  0  0  0  0  0  0  0  0
    2.8123   -2.5625   -2.1310 C   0  0  0  0  0  0  0  0  0  0  0  0
    3.2755   -3.1104   -3.2578 C   0  0  0  0  0  0  0  0  0  0  0  0
    3.0861   -4.5391   -3.5348 C   0  0  0  0  0  0  0  0  0  0  0  0
    2.4282   -5.2930   -2.6297 C   0  0  0  0  0  0  0  0  0  0  0  0
    1.9043   -4.6885   -1.3588 C   0  0  0  0  0  0  0  0  0  0  0  0
    0.4160    4.0077   -0.8943 C   0  0  0  0  0  0  0  0  0  0  0  0
   -1.0656    3.6367    1.0176 C   0  0  0  0  0  0  0  0  0  0  0  0
    4.9758   -4.9501   -5.1001 C   0  0  0  0  0  0  0  0  0  0  0  0
    2.7471   -5.8870   -5.6231 C   0  0  0  0  0  0  0  0  0  0  0  0
  1  2  1  0  0  0  0
  1 10  1  0  0  0  0
  1 16  1  0  0  0  0
  2  4  2  0  0  0  0
  2  9  1  0  0  0  0
  4  6  1  0  0  0  0
  6  7  2  0  0  0  0
  7  8  1  0  0  0  0
  8  9  2  0  0  0  0
 10 11  2  0  0  0  0
 10 15  1  0  0  0  0
 11 12  1  0  0  0  0
 12 13  2  0  0  0  0
 13  3  1  0  0  0  0
 13 14  1  0  0  0  0
 14 15  2  0  0  0  0
 16 17  2  0  0  0  0
 16 21  1  0  0  0  0
 17 18  1  0  0  0  0
 18 19  2  0  0  0  0
 19  5  1  0  0  0  0
 19 20  1  0  0  0  0
 20 21  2  0  0  0  0
 22  3  1  0  0  0  0
 23  3  1  0  0  0  0
 24  5  1  0  0  0  0
 25  5  1  0  0  0  0
M  END
>  <CHROM.1>
48.19201885,-19.22205221,-148.01390489,172.83034899,53.06385765,1.63063729
-2.11277573,-0.46737682,2.98933211,1.18449554,-0.84414602

>  <Name>
1q8n_lig

>  <RI>
0

>  <Rbt.Current_Directory>
/home/itssahil/PROJECTS/Mol_Feturizer/New_Systems/rnas/1q8n

>  <Rbt.Executable>
rbdock ($Id: //depot/dev/client3/rdock/2013.1/src/exe/rbdock.cxx#4 $)

>  <Rbt.Library>
libRbt.so (2013.1, Build901 2013/11/27)

>  <Rbt.Parameter_File>
/export/apps/rDock/src/rDock_2013.1_src/data/scripts/dock_solv.prm

>  <Rbt.Receptor>
prm/pocket_docking_8.prm

>  <SCORE>
-42.4128

>  <SCORE.INTER>
-44.5662

>  <SCORE.INTER.CONST>
1

>  <SCORE.INTER.POLAR>
0

>  <SCORE.INTER.ROT>
5

>  <SCORE.INTER.SOLV>
10.8211

>  <SCORE.INTER.VDW>
-40.2512

>  <SCORE.INTER.norm>
-1.78265

>  <SCORE.INTRA>
2.1534

>  <SCORE.INTRA.DIHEDRAL>
8.37456

>  <SCORE.INTRA.DIHEDRAL.0>
2.1627

>  <SCORE.INTRA.POLAR>
0

>  <SCORE.INTRA.POLAR.0>
0

>  <SCORE.INTRA.REPUL>
0

>  <SCORE.INTRA.REPUL.0>
0

>  <SCORE.INTRA.SOLV>
0.0243878

>  <SCORE.INTRA.SOLV.lig_0>
-5.95779

>  <SCORE.INTRA.VDW>
-2.04608

>  <SCORE.INTRA.VDW.0>
3.81702

>  <SCORE.INTRA.norm>
0.0861359

>  <SCORE.RESTR>
0

>  <SCORE.RESTR.CAVITY>
0

>  <SCORE.RESTR.norm>
0

>  <SCORE.SYSTEM>
0

>  <SCORE.SYSTEM.CONST>
0

>  <SCORE.SYSTEM.DIHEDRAL>
0

>  <SCORE.SYSTEM.SOLV>
0

>  <SCORE.SYSTEM.norm>
0

>  <SCORE.heavy>
25

>  <SCORE.norm>
-1.69651

>  <RMSD>
5.870

$$$$
1q8n_lig
 OpenBabel11021811403D
libRbt.so/2013.1/901 2013/11/27
 25 27  0  0  0  0  0  0  0  0999 V2000
    1.5652   -2.4890    0.4463 C   0  0  0  0  0  0  0  0  0  0  0  0
    1.5763   -3.3563    1.8295 C   0  0  0  0  0  0  0  0  0  0  0  0
    3.3517   -5.1663   -4.5599 N   0  0  0  0  0  0  0  0  0  0  0  0
    0.4810   -3.5407    2.6049 C   0  0  0  0  0  0  0  0  0  0  0  0
   -0.1323    3.2475    0.0937 N   0  0  0  0  0  0  0  0  0  0  0  0
    0.5353   -4.3306    3.8567 C   0  0  0  0  0  0  0  0  0  0  0  0
    1.7033   -4.8900    4.2476 C   0  0  0  0  0  0  0  0  0  0  0  0
    2.8818   -4.7114    3.4320 C   0  0  0  0  0  0  0  0  0  0  0  0
    2.8205   -3.9954    2.3065 C   0  0  0  0  0  0  0  0  0  0  0  0
    2.0554   -3.2179   -0.9279 C   0  0  0  0  0  0  0  0  0  0  0  0
    2.6711   -2.5230   -1.9069 C   0  0  0  0  0  0  0  0  0  0  0  0
    3.1253   -3.1719   -3.1681 C   0  0  0  0  0  0  0  0  0  0  0  0
    2.9281   -4.5033   -3.3621 C   0  0  0  0  0  0  0  0  0  0  0  0
    2.2581   -5.2767   -2.2996 C   0  0  0  0  0  0  0  0  0  0  0  0
    1.8540   -4.6764   -1.1713 C   0  0  0  0  0  0  0  0  0  0  0  0
    1.0741   -0.9058    0.4133 C   0  0  0  0  0  0  0  0  0  0  0  0
    1.4475   -0.0317   -0.7521 C   0  0  0  0  0  0  0  0  0  0  0  0
    1.0759    1.2481   -0.8444 C   0  0  0  0  0  0  0  0  0  0  0  0
    0.2698    1.8769    0.2085 C   0  0  0  0  0  0  0  0  0  0  0  0
   -0.0873    1.1381    1.2795 C   0  0  0  0  0  0  0  0  0  0  0  0
    0.3233   -0.3018    1.3935 C   0  0  0  0  0  0  0  0  0  0  0  0
    4.7040   -5.1122   -5.0255 C   0  0  0  0  0  0  0  0  0  0  0  0
    2.4137   -5.9160   -5.3367 C   0  0  0  0  0  0  0  0  0  0  0  0
    0.3929    4.0718   -0.9565 C   0  0  0  0  0  0  0  0  0  0  0  0
   -1.0746    3.8330    1.0203 C   0  0  0  0  0  0  0  0  0  0  0  0
  1  2  1  0  0  0  0
  1 10  1  0  0  0  0
  1 16  1  0  0  0  0
  2  4  2  0  0  0  0
  2  9  1  0  0  0  0
  4  6  1  0  0  0  0
  6  7  2  0  0  0  0
  7  8  1  0  0  0  0
  8  9  2  0  0  0  0
 10 11  2  0  0  0  0
 10 15  1  0  0  0  0
 11 12  1  0  0  0  0
 12 13  2  0  0  0  0
 13  3  1  0  0  0  0
 13 14  1  0  0  0  0
 14 15  2  0  0  0  0
 16 17  2  0  0  0  0
 16 21  1  0  0  0  0
 17 18  1  0  0  0  0
 18 19  2  0  0  0  0
 19  5  1  0  0  0  0
 19 20  1  0  0  0  0
 20 21  2  0  0  0  0
 22  3  1  0  0  0  0
 23  3  1  0  0  0  0
 24  5  1  0  0  0  0
 25  5  1  0  0  0  0
M  END
>  <CHROM.1>
-123.26506468,-148.12570185,162.07609951,55.13511691,-8.35652755,1.60899697
-2.07011979,-0.35336930,3.00972281,1.21261106,-0.95670695

>  <Name>
1q8n_lig

>  <RI>
0

>  <Rbt.Current_Directory>
/home/itssahil/PROJECTS/Mol_Feturizer/New_Systems/rnas/1q8n

>  <Rbt.Executable>
rbdock ($Id: //depot/dev/client3/rdock/2013.1/src/exe/rbdock.cxx#4 $)

>  <Rbt.Library>
libRbt.so (2013.1, Build901 2013/11/27)

>  <Rbt.Parameter_File>
/export/apps/rDock/src/rDock_2013.1_src/data/scripts/dock_solv.prm

>  <Rbt.Receptor>
prm/blind_docking_80.prm

>  <SCORE>
-42.4264

>  <SCORE.INTER>
-44.6938

>  <SCORE.INTER.CONST>
1

>  <SCORE.INTER.POLAR>
0

>  <SCORE.INTER.ROT>
5

>  <SCORE.INTER.SOLV>
11.0733

>  <SCORE.INTER.VDW>
-40.4203

>  <SCORE.INTER.norm>
-1.78775

>  <SCORE.INTRA>
2.26734

>  <SCORE.INTRA.DIHEDRAL>
8.88621

>  <SCORE.INTRA.DIHEDRAL.0>
2.1627

>  <SCORE.INTRA.POLAR>
0

>  <SCORE.INTRA.POLAR.0>
0

>  <SCORE.INTRA.REPUL>
0

>  <SCORE.INTRA.REPUL.0>
0

>  <SCORE.INTRA.SOLV>
0.0123171

>  <SCORE.INTRA.SOLV.lig_0>
-5.95779

>  <SCORE.INTRA.VDW>
-2.18192

>  <SCORE.INTRA.VDW.0>
3.81702

>  <SCORE.INTRA.norm>
0.0906936

>  <SCORE.RESTR>
0

>  <SCORE.RESTR.CAVITY>
0

>  <SCORE.RESTR.norm>
0

>  <SCORE.SYSTEM>
0

>  <SCORE.SYSTEM.CONST>
0

>  <SCORE.SYSTEM.DIHEDRAL>
0

>  <SCORE.SYSTEM.SOLV>
0

>  <SCORE.SYSTEM.norm>
0

>  <SCORE.heavy>
25

>  <SCORE.norm>
-1.69706

>  <RMSD>
5.871

$$$$
1q8n_lig
 OpenBabel11021811413D
libRbt.so/2013.1/901 2013/11/27
 25 27  0  0  0  0  0  0  0  0999 V2000
    1.5486   -2.6125    0.3002 C   0  0  0  0  0  0  0  0  0  0  0  0
    1.4746   -3.3875    1.7352 C   0  0  0  0  0  0  0  0  0  0  0  0
   -0.1020    3.1011    0.0721 N   0  0  0  0  0  0  0  0  0  0  0  0
    0.3755   -3.3911    2.5270 C   0  0  0  0  0  0  0  0  0  0  0  0
    3.5491   -5.1615   -4.7410 N   0  0  0  0  0  0  0  0  0  0  0  0
    0.3519   -4.1027    3.8258 C   0  0  0  0  0  0  0  0  0  0  0  0
    1.4501   -4.7726    4.2444 C   0  0  0  0  0  0  0  0  0  0  0  0
    2.6305   -4.7872    3.4125 C   0  0  0  0  0  0  0  0  0  0  0  0
    2.6401   -4.1401    2.2444 C   0  0  0  0  0  0  0  0  0  0  0  0
    1.0925   -1.0476    0.2414 C   0  0  0  0  0  0  0  0  0  0  0  0
    0.3120   -0.5101    1.2017 C   0  0  0  0  0  0  0  0  0  0  0  0
   -0.1141    0.9164    1.1643 C   0  0  0  0  0  0  0  0  0  0  0  0
    0.2840    1.7229    0.1444 C   0  0  0  0  0  0  0  0  0  0  0  0
    1.1395    1.1498   -0.9119 C   0  0  0  0  0  0  0  0  0  0  0  0
    1.5123   -0.1367   -0.8637 C   0  0  0  0  0  0  0  0  0  0  0  0
    2.0692   -3.3746   -1.0771 C   0  0  0  0  0  0  0  0  0  0  0  0
    2.7570   -2.5830   -2.1549 C   0  0  0  0  0  0  0  0  0  0  0  0
    3.2085   -3.1376   -3.2832 C   0  0  0  0  0  0  0  0  0  0  0  0
    3.0513   -4.5754   -3.5319 C   0  0  0  0  0  0  0  0  0  0  0  0
    2.4353   -5.3308   -2.5990 C   0  0  0  0  0  0  0  0  0  0  0  0
    1.9251   -4.7187   -1.3263 C   0  0  0  0  0  0  0  0  0  0  0  0
    0.4045    3.9844   -0.9338 C   0  0  0  0  0  0  0  0  0  0  0  0
   -1.0240    3.6403    1.0231 C   0  0  0  0  0  0  0  0  0  0  0  0
    4.9276   -5.0074   -5.1076 C   0  0  0  0  0  0  0  0  0  0  0  0
    2.6867   -5.9232   -5.6160 C   0  0  0  0  0  0  0  0  0  0  0  0
  1  2  1  0  0  0  0
  1 10  1  0  0  0  0
  1 16  1  0  0  0  0
  2  4  2  0  0  0  0
  2  9  1  0  0  0  0
  4  6  1  0  0  0  0
  6  7  2  0  0  0  0
  7  8  1  0  0  0  0
  8  9  2  0  0  0  0
 10 11  2  0  0  0  0
 10 15  1  0  0  0  0
 11 12  1  0  0  0  0
 12 13  2  0  0  0  0
 13  3  1  0  0  0  0
 13 14  1  0  0  0  0
 14 15  2  0  0  0  0
 16 17  2  0  0  0  0
 16 21  1  0  0  0  0
 17 18  1  0  0  0  0
 18 19  2  0  0  0  0
 19  5  1  0  0  0  0
 19 20  1  0  0  0  0
 20 21  2  0  0  0  0
 22  3  1  0  0  0  0
 23  3  1  0  0  0  0
 24  5  1  0  0  0  0
 25  5  1  0  0  0  0
M  END
>  <CHROM.1>
50.69130984,-19.71303328,-150.00530358,174.53384649,55.55315523,1.62752723
-2.12842623,-0.46558491,3.00575508,1.19192919,-0.86491885

>  <Name>
1q8n_lig

>  <RI>
0

>  <Rbt.Current_Directory>
/home/itssahil/PROJECTS/Mol_Feturizer/New_Systems/rnas/1q8n

>  <Rbt.Executable>
rbdock ($Id: //depot/dev/client3/rdock/2013.1/src/exe/rbdock.cxx#4 $)

>  <Rbt.Library>
libRbt.so (2013.1, Build901 2013/11/27)

>  <Rbt.Parameter_File>
/export/apps/rDock/src/rDock_2013.1_src/data/scripts/dock_solv.prm

>  <Rbt.Receptor>
prm/pocket_docking_7.prm

>  <SCORE>
-42.4884

>  <SCORE.INTER>
-44.7637

>  <SCORE.INTER.CONST>
1

>  <SCORE.INTER.POLAR>
0

>  <SCORE.INTER.ROT>
5

>  <SCORE.INTER.SOLV>
10.7902

>  <SCORE.INTER.VDW>
-40.3725

>  <SCORE.INTER.norm>
-1.79055

>  <SCORE.INTRA>
2.27528

>  <SCORE.INTRA.DIHEDRAL>
8.81829

>  <SCORE.INTRA.DIHEDRAL.0>
2.1627

>  <SCORE.INTRA.POLAR>
0

>  <SCORE.INTRA.POLAR.0>
0

>  <SCORE.INTRA.REPUL>
0

>  <SCORE.INTRA.REPUL.0>
0

>  <SCORE.INTRA.SOLV>
0.0235527

>  <SCORE.INTRA.SOLV.lig_0>
-5.95779

>  <SCORE.INTRA.VDW>
-2.14564

>  <SCORE.INTRA.VDW.0>
3.81702

>  <SCORE.INTRA.norm>
0.0910112

>  <SCORE.RESTR>
0

>  <SCORE.RESTR.CAVITY>
0

>  <SCORE.RESTR.norm>
0

>  <SCORE.SYSTEM>
0

>  <SCORE.SYSTEM.CONST>
0

>  <SCORE.SYSTEM.DIHEDRAL>
0

>  <SCORE.SYSTEM.SOLV>
0

>  <SCORE.SYSTEM.norm>
0

>  <SCORE.heavy>
25

>  <SCORE.norm>
-1.69954

>  <RMSD>
5.876

$$$$
1q8n_lig
 OpenBabel11021811413D
libRbt.so/2013.1/901 2013/11/27
 25 27  0  0  0  0  0  0  0  0999 V2000
    1.5435   -2.5088    0.5019 C   0  0  0  0  0  0  0  0  0  0  0  0
    1.5667   -3.3617    1.8939 C   0  0  0  0  0  0  0  0  0  0  0  0
    3.2509   -5.2154   -4.5161 N   0  0  0  0  0  0  0  0  0  0  0  0
    2.6366   -4.0787    2.3134 C   0  0  0  0  0  0  0  0  0  0  0  0
   -0.1225    3.2343    0.1100 N   0  0  0  0  0  0  0  0  0  0  0  0
    2.6144   -4.8441    3.5814 C   0  0  0  0  0  0  0  0  0  0  0  0
    1.5026   -4.8345    4.3520 C   0  0  0  0  0  0  0  0  0  0  0  0
    0.3528   -4.0710    3.9265 C   0  0  0  0  0  0  0  0  0  0  0  0
    0.3845   -3.3866    2.7804 C   0  0  0  0  0  0  0  0  0  0  0  0
    2.0108   -3.2554   -0.8709 C   0  0  0  0  0  0  0  0  0  0  0  0
    1.8053   -4.5763   -1.0534 C   0  0  0  0  0  0  0  0  0  0  0  0
    2.2253   -5.2744   -2.3001 C   0  0  0  0  0  0  0  0  0  0  0  0
    2.8333   -4.5822   -3.3003 C   0  0  0  0  0  0  0  0  0  0  0  0
    3.0627   -3.1367   -3.1160 C   0  0  0  0  0  0  0  0  0  0  0  0
    2.6800   -2.5244   -1.9867 C   0  0  0  0  0  0  0  0  0  0  0  0
    1.0627   -0.9227    0.4585 C   0  0  0  0  0  0  0  0  0  0  0  0
    1.4126   -0.0679   -0.7283 C   0  0  0  0  0  0  0  0  0  0  0  0
    1.0476    1.2131   -0.8295 C   0  0  0  0  0  0  0  0  0  0  0  0
    0.2728    1.8626    0.2342 C   0  0  0  0  0  0  0  0  0  0  0  0
   -0.0623    1.1416    1.3244 C   0  0  0  0  0  0  0  0  0  0  0  0
    0.3410   -0.2995    1.4485 C   0  0  0  0  0  0  0  0  0  0  0  0
    2.3441   -5.9490   -5.3458 C   0  0  0  0  0  0  0  0  0  0  0  0
    4.6135   -5.1277   -4.9412 C   0  0  0  0  0  0  0  0  0  0  0  0
   -1.0583    3.8060    1.0352 C   0  0  0  0  0  0  0  0  0  0  0  0
    0.4093    4.0765   -0.9376 C   0  0  0  0  0  0  0  0  0  0  0  0
  1  2  1  0  0  0  0
  1 10  1  0  0  0  0
  1 16  1  0  0  0  0
  2  4  2  0  0  0  0
  2  9  1  0  0  0  0
  4  6  1  0  0  0  0
  6  7  2  0  0  0  0
  7  8  1  0  0  0  0
  8  9  2  0  0  0  0
 10 11  2  0  0  0  0
 10 15  1  0  0  0  0
 11 12  1  0  0  0  0
 12 13  2  0  0  0  0
 13  3  1  0  0  0  0
 13 14  1  0  0  0  0
 14 15  2  0  0  0  0
 16 17  2  0  0  0  0
 16 21  1  0  0  0  0
 17 18  1  0  0  0  0
 18 19  2  0  0  0  0
 19  5  1  0  0  0  0
 19 20  1  0  0  0  0
 20 21  2  0  0  0  0
 22  3  1  0  0  0  0
 23  3  1  0  0  0  0
 24  5  1  0  0  0  0
 25  5  1  0  0  0  0
M  END
>  <CHROM.1>
50.22356084,31.79645954,162.80842375,56.08668936,169.74788976,1.54996731
-2.06953723,-0.30550193,0.15061835,-1.21922031,2.22306372

>  <Name>
1q8n_lig

>  <RI>
0

>  <Rbt.Current_Directory>
/home/itssahil/PROJECTS/Mol_Feturizer/New_Systems/rnas/1q8n

>  <Rbt.Executable>
rbdock ($Id: //depot/dev/client3/rdock/2013.1/src/exe/rbdock.cxx#4 $)

>  <Rbt.Library>
libRbt.so (2013.1, Build901 2013/11/27)

>  <Rbt.Parameter_File>
/export/apps/rDock/src/rDock_2013.1_src/data/scripts/dock_solv.prm

>  <Rbt.Receptor>
prm/pocket_docking_7.prm

>  <SCORE>
-42.4494

>  <SCORE.INTER>
-44.8193

>  <SCORE.INTER.CONST>
1

>  <SCORE.INTER.POLAR>
0

>  <SCORE.INTER.ROT>
5

>  <SCORE.INTER.SOLV>
10.9657

>  <SCORE.INTER.VDW>
-40.4681

>  <SCORE.INTER.norm>
-1.79277

>  <SCORE.INTRA>
2.36987

>  <SCORE.INTRA.DIHEDRAL>
9.21769

>  <SCORE.INTRA.DIHEDRAL.0>
2.1627

>  <SCORE.INTRA.POLAR>
0

>  <SCORE.INTRA.POLAR.0>
0

>  <SCORE.INTRA.REPUL>
0

>  <SCORE.INTRA.REPUL.0>
0

>  <SCORE.INTRA.SOLV>
0.0220008

>  <SCORE.INTRA.SOLV.lig_0>
-5.95779

>  <SCORE.INTRA.VDW>
-2.24997

>  <SCORE.INTRA.VDW.0>
3.81702

>  <SCORE.INTRA.norm>
0.0947949

>  <SCORE.RESTR>
0

>  <SCORE.RESTR.CAVITY>
0

>  <SCORE.RESTR.norm>
0

>  <SCORE.SYSTEM>
0

>  <SCORE.SYSTEM.CONST>
0

>  <SCORE.SYSTEM.DIHEDRAL>
0

>  <SCORE.SYSTEM.SOLV>
0

>  <SCORE.SYSTEM.norm>
0

>  <SCORE.heavy>
25

>  <SCORE.norm>
-1.69798

>  <RMSD>
5.881

$$$$
1q8n_lig
 OpenBabel11021811403D
libRbt.so/2013.1/901 2013/11/27
 25 27  0  0  0  0  0  0  0  0999 V2000
    1.5841   -2.6402    0.3642 C   0  0  0  0  0  0  0  0  0  0  0  0
    1.5664   -3.3965    1.8110 C   0  0  0  0  0  0  0  0  0  0  0  0
   -0.1432    3.0511    0.1479 N   0  0  0  0  0  0  0  0  0  0  0  0
    2.6336   -4.0547    2.3236 C   0  0  0  0  0  0  0  0  0  0  0  0
    3.4342   -5.2452   -4.7057 N   0  0  0  0  0  0  0  0  0  0  0  0
    2.5738   -4.7333    3.6388 C   0  0  0  0  0  0  0  0  0  0  0  0
    1.4292   -4.7018    4.3591 C   0  0  0  0  0  0  0  0  0  0  0  0
    0.2813   -3.9998    3.8341 C   0  0  0  0  0  0  0  0  0  0  0  0
    0.3472   -3.3935    2.6462 C   0  0  0  0  0  0  0  0  0  0  0  0
    1.1144   -1.0796    0.3010 C   0  0  0  0  0  0  0  0  0  0  0  0
    1.4512   -0.2894   -0.7394 C   0  0  0  0  0  0  0  0  0  0  0  0
    1.0312    1.1374   -0.8138 C   0  0  0  0  0  0  0  0  0  0  0  0
    0.2832    1.6834    0.1821 C   0  0  0  0  0  0  0  0  0  0  0  0
   -0.0947    0.8310    1.3252 C   0  0  0  0  0  0  0  0  0  0  0  0
    0.2934   -0.4509    1.3771 C   0  0  0  0  0  0  0  0  0  0  0  0
    2.0619   -3.4170   -1.0204 C   0  0  0  0  0  0  0  0  0  0  0  0
    2.7524   -2.6446   -2.1104 C   0  0  0  0  0  0  0  0  0  0  0  0
    3.1706   -3.2118   -3.2452 C   0  0  0  0  0  0  0  0  0  0  0  0
    2.9718   -4.6452   -3.4894 C   0  0  0  0  0  0  0  0  0  0  0  0
    2.3517   -5.3835   -2.5455 C   0  0  0  0  0  0  0  0  0  0  0  0
    1.8786   -4.7571   -1.2654 C   0  0  0  0  0  0  0  0  0  0  0  0
    0.3284    3.9738   -0.8393 C   0  0  0  0  0  0  0  0  0  0  0  0
   -1.0717    3.5391    1.1200 C   0  0  0  0  0  0  0  0  0  0  0  0
    4.8153   -5.1493   -5.0824 C   0  0  0  0  0  0  0  0  0  0  0  0
    2.5326   -5.9633   -5.5781 C   0  0  0  0  0  0  0  0  0  0  0  0
  1  2  1  0  0  0  0
  1 10  1  0  0  0  0
  1 16  1  0  0  0  0
  2  4  2  0  0  0  0
  2  9  1  0  0  0  0
  4  6  1  0  0  0  0
  6  7  2  0  0  0  0
  7  8  1  0  0  0  0
  8  9  2  0  0  0  0
 10 11  2  0  0  0  0
 10 15  1  0  0  0  0
 11 12  1  0  0  0  0
 12 13  2  0  0  0  0
 13  3  1  0  0  0  0
 13 14  1  0  0  0  0
 14 15  2  0  0  0  0
 16 17  2  0  0  0  0
 16 21  1  0  0  0  0
 17 18  1  0  0  0  0
 18 19  2  0  0  0  0
 19  5  1  0  0  0  0
 19 20  1  0  0  0  0
 20 21  2  0  0  0  0
 22  3  1  0  0  0  0
 23  3  1  0  0  0  0
 24  5  1  0  0  0  0
 25  5  1  0  0  0  0
M  END
>  <CHROM.1>
-127.27892613,160.92490848,-147.70121127,-8.22453268,56.74057627,1.58486275
-2.15979928,-0.38553316,3.06837999,1.20226652,-0.90754754

>  <Name>
1q8n_lig

>  <RI>
0

>  <Rbt.Current_Directory>
/home/itssahil/PROJECTS/Mol_Feturizer/New_Systems/rnas/1q8n

>  <Rbt.Executable>
rbdock ($Id: //depot/dev/client3/rdock/2013.1/src/exe/rbdock.cxx#4 $)

>  <Rbt.Library>
libRbt.so (2013.1, Build901 2013/11/27)

>  <Rbt.Parameter_File>
/export/apps/rDock/src/rDock_2013.1_src/data/scripts/dock_solv.prm

>  <Rbt.Receptor>
prm/blind_docking_100.prm

>  <SCORE>
-41.9354

>  <SCORE.INTER>
-44.2743

>  <SCORE.INTER.CONST>
1

>  <SCORE.INTER.POLAR>
0

>  <SCORE.INTER.ROT>
5

>  <SCORE.INTER.SOLV>
10.6501

>  <SCORE.INTER.VDW>
-39.9996

>  <SCORE.INTER.norm>
-1.77097

>  <SCORE.INTRA>
2.33894

>  <SCORE.INTRA.DIHEDRAL>
9.20789

>  <SCORE.INTRA.DIHEDRAL.0>
2.1627

>  <SCORE.INTRA.POLAR>
0

>  <SCORE.INTRA.POLAR.0>
0

>  <SCORE.INTRA.REPUL>
0

>  <SCORE.INTRA.REPUL.0>
0

>  <SCORE.INTRA.SOLV>
0.0255194

>  <SCORE.INTRA.SOLV.lig_0>
-5.95779

>  <SCORE.INTRA.VDW>
-2.27776

>  <SCORE.INTRA.VDW.0>
3.81702

>  <SCORE.INTRA.norm>
0.0935577

>  <SCORE.RESTR>
0

>  <SCORE.RESTR.CAVITY>
0

>  <SCORE.RESTR.norm>
0

>  <SCORE.SYSTEM>
0

>  <SCORE.SYSTEM.CONST>
0

>  <SCORE.SYSTEM.DIHEDRAL>
0

>  <SCORE.SYSTEM.SOLV>
0

>  <SCORE.SYSTEM.norm>
0

>  <SCORE.heavy>
25

>  <SCORE.norm>
-1.67742

>  <RMSD>
5.882

$$$$
1q8n_lig
 OpenBabel11021811403D
libRbt.so/2013.1/901 2013/11/27
 25 27  0  0  0  0  0  0  0  0999 V2000
    1.5266   -2.5242    0.5277 C   0  0  0  0  0  0  0  0  0  0  0  0
    1.5539   -3.3784    1.9188 C   0  0  0  0  0  0  0  0  0  0  0  0
    3.2442   -5.2179   -4.4938 N   0  0  0  0  0  0  0  0  0  0  0  0
    0.4736   -3.5355    2.7208 C   0  0  0  0  0  0  0  0  0  0  0  0
   -0.1717    3.2098    0.1404 N   0  0  0  0  0  0  0  0  0  0  0  0
    0.5425   -4.3145    3.9787 C   0  0  0  0  0  0  0  0  0  0  0  0
    1.7089   -4.8914    4.3483 C   0  0  0  0  0  0  0  0  0  0  0  0
    2.8713   -4.7420    3.5042 C   0  0  0  0  0  0  0  0  0  0  0  0
    2.7970   -4.0357    2.3734 C   0  0  0  0  0  0  0  0  0  0  0  0
    1.9968   -3.2672   -0.8460 C   0  0  0  0  0  0  0  0  0  0  0  0
    1.7974   -4.5889   -1.0297 C   0  0  0  0  0  0  0  0  0  0  0  0
    2.2201   -5.2838   -2.2772 C   0  0  0  0  0  0  0  0  0  0  0  0
    2.8243   -4.5878   -3.2771 C   0  0  0  0  0  0  0  0  0  0  0  0
    3.0470   -3.1414   -3.0915 C   0  0  0  0  0  0  0  0  0  0  0  0
    2.6619   -2.5320   -1.9615 C   0  0  0  0  0  0  0  0  0  0  0  0
    1.0389   -0.9401    0.4862 C   0  0  0  0  0  0  0  0  0  0  0  0
    1.3485   -0.0941   -0.7180 C   0  0  0  0  0  0  0  0  0  0  0  0
    0.9759    1.1847   -0.8184 C   0  0  0  0  0  0  0  0  0  0  0  0
    0.2323    1.8405    0.2635 C   0  0  0  0  0  0  0  0  0  0  0  0
   -0.0660    1.1276    1.3696 C   0  0  0  0  0  0  0  0  0  0  0  0
    0.3463   -0.3110    1.4931 C   0  0  0  0  0  0  0  0  0  0  0  0
    4.5979   -5.1618   -4.9552 C   0  0  0  0  0  0  0  0  0  0  0  0
    2.3011   -5.9351   -5.2946 C   0  0  0  0  0  0  0  0  0  0  0  0
    0.3689    4.0345   -0.9018 C   0  0  0  0  0  0  0  0  0  0  0  0
   -1.1314    3.7936    1.0501 C   0  0  0  0  0  0  0  0  0  0  0  0
  1  2  1  0  0  0  0
  1 10  1  0  0  0  0
  1 16  1  0  0  0  0
  2  4  2  0  0  0  0
  2  9  1  0  0  0  0
  4  6  1  0  0  0  0
  6  7  2  0  0  0  0
  7  8  1  0  0  0  0
  8  9  2  0  0  0  0
 10 11  2  0  0  0  0
 10 15  1  0  0  0  0
 11 12  1  0  0  0  0
 12 13  2  0  0  0  0
 13  3  1  0  0  0  0
 13 14  1  0  0  0  0
 14 15  2  0  0  0  0
 16 17  2  0  0  0  0
 16 21  1  0  0  0  0
 17 18  1  0  0  0  0
 18 19  2  0  0  0  0
 19  5  1  0  0  0  0
 19 20  1  0  0  0  0
 20 21  2  0  0  0  0
 22  3  1  0  0  0  0
 23  3  1  0  0  0  0
 24  5  1  0  0  0  0
 25  5  1  0  0  0  0
M  END
>  <CHROM.1>
-124.32184448,31.76817328,164.66368833,-123.38419597,-12.75441118,1.56388888
-2.09385431,-0.28648592,3.04785296,1.21830988,-0.99446130

>  <Name>
1q8n_lig

>  <RI>
0

>  <Rbt.Current_Directory>
/home/itssahil/PROJECTS/Mol_Feturizer/New_Systems/rnas/1q8n

>  <Rbt.Executable>
rbdock ($Id: //depot/dev/client3/rdock/2013.1/src/exe/rbdock.cxx#4 $)

>  <Rbt.Library>
libRbt.so (2013.1, Build901 2013/11/27)

>  <Rbt.Parameter_File>
/export/apps/rDock/src/rDock_2013.1_src/data/scripts/dock_solv.prm

>  <Rbt.Receptor>
prm/blind_docking_20.prm

>  <SCORE>
-42.9446

>  <SCORE.INTER>
-45.2867

>  <SCORE.INTER.CONST>
1

>  <SCORE.INTER.POLAR>
0

>  <SCORE.INTER.ROT>
5

>  <SCORE.INTER.SOLV>
10.9349

>  <SCORE.INTER.VDW>
-40.7695

>  <SCORE.INTER.norm>
-1.81147

>  <SCORE.INTRA>
2.34213

>  <SCORE.INTRA.DIHEDRAL>
9.54545

>  <SCORE.INTRA.DIHEDRAL.0>
2.1627

>  <SCORE.INTRA.POLAR>
0

>  <SCORE.INTRA.POLAR.0>
0

>  <SCORE.INTRA.REPUL>
0

>  <SCORE.INTRA.REPUL.0>
0

>  <SCORE.INTRA.SOLV>
0.0165344

>  <SCORE.INTRA.SOLV.lig_0>
-5.95779

>  <SCORE.INTRA.VDW>
-2.43886

>  <SCORE.INTRA.VDW.0>
3.81702

>  <SCORE.INTRA.norm>
0.0936852

>  <SCORE.RESTR>
0

>  <SCORE.RESTR.CAVITY>
0

>  <SCORE.RESTR.norm>
0

>  <SCORE.SYSTEM>
0

>  <SCORE.SYSTEM.CONST>
0

>  <SCORE.SYSTEM.DIHEDRAL>
0

>  <SCORE.SYSTEM.SOLV>
0

>  <SCORE.SYSTEM.norm>
0

>  <SCORE.heavy>
25

>  <SCORE.norm>
-1.71778

>  <RMSD>
5.893

$$$$
1q8n_lig
 OpenBabel11021811403D
libRbt.so/2013.1/901 2013/11/27
 25 27  0  0  0  0  0  0  0  0999 V2000
   -0.1714    1.0681    0.8836 C   0  0  0  0  0  0  0  0  0  0  0  0
   -0.8441    1.9915    2.0498 C   0  0  0  0  0  0  0  0  0  0  0  0
    0.3608    3.3809   -4.5744 N   0  0  0  0  0  0  0  0  0  0  0  0
   -1.4845    3.1592    1.8022 C   0  0  0  0  0  0  0  0  0  0  0  0
    1.7778   -4.5333    1.7430 N   0  0  0  0  0  0  0  0  0  0  0  0
   -2.0765    3.9705    2.8909 C   0  0  0  0  0  0  0  0  0  0  0  0
   -1.9840    3.5452    4.1717 C   0  0  0  0  0  0  0  0  0  0  0  0
   -1.3112    2.2994    4.4572 C   0  0  0  0  0  0  0  0  0  0  0  0
   -0.7799    1.5779    3.4671 C   0  0  0  0  0  0  0  0  0  0  0  0
   -0.0267    1.6971   -0.6143 C   0  0  0  0  0  0  0  0  0  0  0  0
   -0.4982    1.0429   -1.6960 C   0  0  0  0  0  0  0  0  0  0  0  0
   -0.3749    1.6020   -3.0709 C   0  0  0  0  0  0  0  0  0  0  0  0
    0.2239    2.8069   -3.2684 C   0  0  0  0  0  0  0  0  0  0  0  0
    0.7423    3.5349   -2.0949 C   0  0  0  0  0  0  0  0  0  0  0  0
    0.6246    3.0163   -0.8645 C   0  0  0  0  0  0  0  0  0  0  0  0
    0.3579   -0.4733    1.1881 C   0  0  0  0  0  0  0  0  0  0  0  0
    0.5905   -1.4231    0.0456 C   0  0  0  0  0  0  0  0  0  0  0  0
    1.0251   -2.6739    0.2220 C   0  0  0  0  0  0  0  0  0  0  0  0
    1.3015   -3.1934    1.5664 C   0  0  0  0  0  0  0  0  0  0  0  0
    1.1033   -2.3838    2.6274 C   0  0  0  0  0  0  0  0  0  0  0  0
    0.6165   -0.9755    2.4413 C   0  0  0  0  0  0  0  0  0  0  0  0
    1.1537    4.5476   -4.8165 C   0  0  0  0  0  0  0  0  0  0  0  0
   -0.3048    2.7891   -5.6932 C   0  0  0  0  0  0  0  0  0  0  0  0
    1.6199   -5.5028    0.6972 C   0  0  0  0  0  0  0  0  0  0  0  0
    2.4306   -4.9425    2.9661 C   0  0  0  0  0  0  0  0  0  0  0  0
  1  2  1  0  0  0  0
  1 10  1  0  0  0  0
  1 16  1  0  0  0  0
  2  4  2  0  0  0  0
  2  9  1  0  0  0  0
  4  6  1  0  0  0  0
  6  7  2  0  0  0  0
  7  8  1  0  0  0  0
  8  9  2  0  0  0  0
 10 11  2  0  0  0  0
 10 15  1  0  0  0  0
 11 12  1  0  0  0  0
 12 13  2  0  0  0  0
 13  3  1  0  0  0  0
 13 14  1  0  0  0  0
 14 15  2  0  0  0  0
 16 17  2  0  0  0  0
 16 21  1  0  0  0  0
 17 18  1  0  0  0  0
 18 19  2  0  0  0  0
 19  5  1  0  0  0  0
 19 20  1  0  0  0  0
 20 21  2  0  0  0  0
 22  3  1  0  0  0  0
 23  3  1  0  0  0  0
 24  5  1  0  0  0  0
 25  5  1  0  0  0  0
M  END
>  <CHROM.1>
11.18707953,-127.38290964,162.09127421,-170.79165011,-18.56624290,0.19362308
0.59644411,0.20406451,1.94537131,1.17412104,-1.01739538

>  <Name>
1q8n_lig

>  <RI>
0

>  <Rbt.Current_Directory>
/home/itssahil/PROJECTS/Mol_Feturizer/New_Systems/rnas/1q8n

>  <Rbt.Executable>
rbdock ($Id: //depot/dev/client3/rdock/2013.1/src/exe/rbdock.cxx#4 $)

>  <Rbt.Library>
libRbt.so (2013.1, Build901 2013/11/27)

>  <Rbt.Parameter_File>
/export/apps/rDock/src/rDock_2013.1_src/data/scripts/dock_solv.prm

>  <Rbt.Receptor>
prm/blind_docking_60.prm

>  <SCORE>
-51.2567

>  <SCORE.INTER>
-51.817

>  <SCORE.INTER.CONST>
1

>  <SCORE.INTER.POLAR>
0

>  <SCORE.INTER.ROT>
5

>  <SCORE.INTER.SOLV>
11.5841

>  <SCORE.INTER.VDW>
-45.3394

>  <SCORE.INTER.norm>
-2.07268

>  <SCORE.INTRA>
0.560335

>  <SCORE.INTRA.DIHEDRAL>
1.62344

>  <SCORE.INTRA.DIHEDRAL.0>
2.1627

>  <SCORE.INTRA.POLAR>
0

>  <SCORE.INTRA.POLAR.0>
0

>  <SCORE.INTRA.REPUL>
0

>  <SCORE.INTRA.REPUL.0>
0

>  <SCORE.INTRA.SOLV>
0.0301839

>  <SCORE.INTRA.SOLV.lig_0>
-5.95779

>  <SCORE.INTRA.VDW>
-0.266478

>  <SCORE.INTRA.VDW.0>
3.81702

>  <SCORE.INTRA.norm>
0.0224134

>  <SCORE.RESTR>
0

>  <SCORE.RESTR.CAVITY>
0

>  <SCORE.RESTR.norm>
0

>  <SCORE.SYSTEM>
0

>  <SCORE.SYSTEM.CONST>
0

>  <SCORE.SYSTEM.DIHEDRAL>
0

>  <SCORE.SYSTEM.SOLV>
0

>  <SCORE.SYSTEM.norm>
0

>  <SCORE.heavy>
25

>  <SCORE.norm>
-2.05027

>  <RMSD>
5.893

$$$$
1q8n_lig
 OpenBabel11021811403D
libRbt.so/2013.1/901 2013/11/27
 25 27  0  0  0  0  0  0  0  0999 V2000
    1.5359   -2.5131    0.5348 C   0  0  0  0  0  0  0  0  0  0  0  0
    1.5796   -3.3580    1.9311 C   0  0  0  0  0  0  0  0  0  0  0  0
    3.1717   -5.2813   -4.4735 N   0  0  0  0  0  0  0  0  0  0  0  0
    0.4872   -3.5938    2.6966 C   0  0  0  0  0  0  0  0  0  0  0  0
   -0.1376    3.2274    0.1351 N   0  0  0  0  0  0  0  0  0  0  0  0
    0.5711   -4.3609    3.9608 C   0  0  0  0  0  0  0  0  0  0  0  0
    1.7644   -4.8463    4.3736 C   0  0  0  0  0  0  0  0  0  0  0  0
    2.9407   -4.6121    3.5690 C   0  0  0  0  0  0  0  0  0  0  0  0
    2.8524   -3.9174    2.4321 C   0  0  0  0  0  0  0  0  0  0  0  0
    1.9847   -3.2669   -0.8402 C   0  0  0  0  0  0  0  0  0  0  0  0
    2.5716   -2.5903   -1.8492 C   0  0  0  0  0  0  0  0  0  0  0  0
    2.9879   -3.2621   -3.1114 C   0  0  0  0  0  0  0  0  0  0  0  0
    2.7842   -4.5965   -3.2757 C   0  0  0  0  0  0  0  0  0  0  0  0
    2.1455   -5.3501   -2.1802 C   0  0  0  0  0  0  0  0  0  0  0  0
    1.7753   -4.7294   -1.0514 C   0  0  0  0  0  0  0  0  0  0  0  0
    1.0528   -0.9277    0.4892 C   0  0  0  0  0  0  0  0  0  0  0  0
    1.4057   -0.0727   -0.6966 C   0  0  0  0  0  0  0  0  0  0  0  0
    1.0391    1.2077   -0.7996 C   0  0  0  0  0  0  0  0  0  0  0  0
    0.2594    1.8563    0.2611 C   0  0  0  0  0  0  0  0  0  0  0  0
   -0.0786    1.1351    1.3503 C   0  0  0  0  0  0  0  0  0  0  0  0
    0.3266   -0.3053    1.4764 C   0  0  0  0  0  0  0  0  0  0  0  0
    2.2291   -5.9812   -5.2922 C   0  0  0  0  0  0  0  0  0  0  0  0
    4.5396   -5.2819   -4.8907 C   0  0  0  0  0  0  0  0  0  0  0  0
    0.3946    4.0425   -0.9188 C   0  0  0  0  0  0  0  0  0  0  0  0
   -1.0818    3.8225    1.0536 C   0  0  0  0  0  0  0  0  0  0  0  0
  1  2  1  0  0  0  0
  1 10  1  0  0  0  0
  1 16  1  0  0  0  0
  2  4  2  0  0  0  0
  2  9  1  0  0  0  0
  4  6  1  0  0  0  0
  6  7  2  0  0  0  0
  7  8  1  0  0  0  0
  8  9  2  0  0  0  0
 10 11  2  0  0  0  0
 10 15  1  0  0  0  0
 11 12  1  0  0  0  0
 12 13  2  0  0  0  0
 13  3  1  0  0  0  0
 13 14  1  0  0  0  0
 14 15  2  0  0  0  0
 16 17  2  0  0  0  0
 16 21  1  0  0  0  0
 17 18  1  0  0  0  0
 18 19  2  0  0  0  0
 19  5  1  0  0  0  0
 19 20  1  0  0  0  0
 20 21  2  0  0  0  0
 22  3  1  0  0  0  0
 23  3  1  0  0  0  0
 24  5  1  0  0  0  0
 25  5  1  0  0  0  0
M  END
>  <CHROM.1>
-119.01049067,-148.45627141,161.74951774,-120.58744376,-9.89239322,1.56316968
-2.10528379,-0.27142156,3.06905645,1.23161956,-1.02855041

>  <Name>
1q8n_lig

>  <RI>
0

>  <Rbt.Current_Directory>
/home/itssahil/PROJECTS/Mol_Feturizer/New_Systems/rnas/1q8n

>  <Rbt.Executable>
rbdock ($Id: //depot/dev/client3/rdock/2013.1/src/exe/rbdock.cxx#4 $)

>  <Rbt.Library>
libRbt.so (2013.1, Build901 2013/11/27)

>  <Rbt.Parameter_File>
/export/apps/rDock/src/rDock_2013.1_src/data/scripts/dock_solv.prm

>  <Rbt.Receptor>
prm/blind_docking_80.prm

>  <SCORE>
-42.004

>  <SCORE.INTER>
-44.5632

>  <SCORE.INTER.CONST>
1

>  <SCORE.INTER.POLAR>
0

>  <SCORE.INTER.ROT>
5

>  <SCORE.INTER.SOLV>
10.986

>  <SCORE.INTER.VDW>
-40.3041

>  <SCORE.INTER.norm>
-1.78253

>  <SCORE.INTRA>
2.55925

>  <SCORE.INTRA.DIHEDRAL>
9.86207

>  <SCORE.INTRA.DIHEDRAL.0>
2.1627

>  <SCORE.INTRA.POLAR>
0

>  <SCORE.INTRA.POLAR.0>
0

>  <SCORE.INTRA.REPUL>
0

>  <SCORE.INTRA.REPUL.0>
0

>  <SCORE.INTRA.SOLV>
0.00918257

>  <SCORE.INTRA.SOLV.lig_0>
-5.95779

>  <SCORE.INTRA.VDW>
-2.37638

>  <SCORE.INTRA.VDW.0>
3.81702

>  <SCORE.INTRA.norm>
0.10237

>  <SCORE.RESTR>
0

>  <SCORE.RESTR.CAVITY>
0

>  <SCORE.RESTR.norm>
0

>  <SCORE.SYSTEM>
0

>  <SCORE.SYSTEM.CONST>
0

>  <SCORE.SYSTEM.DIHEDRAL>
0

>  <SCORE.SYSTEM.SOLV>
0

>  <SCORE.SYSTEM.norm>
0

>  <SCORE.heavy>
25

>  <SCORE.norm>
-1.68016

>  <RMSD>
5.894

$$$$
1q8n_lig
 OpenBabel11021811403D
libRbt.so/2013.1/901 2013/11/27
 25 27  0  0  0  0  0  0  0  0999 V2000
   -0.2081    1.0714    0.9028 C   0  0  0  0  0  0  0  0  0  0  0  0
   -0.8798    1.9925    2.0715 C   0  0  0  0  0  0  0  0  0  0  0  0
    0.3226    3.3658   -4.5631 N   0  0  0  0  0  0  0  0  0  0  0  0
   -1.5530    3.1414    1.8233 C   0  0  0  0  0  0  0  0  0  0  0  0
    1.7403   -4.5325    1.7471 N   0  0  0  0  0  0  0  0  0  0  0  0
   -2.1429    3.9514    2.9142 C   0  0  0  0  0  0  0  0  0  0  0  0
   -2.0147    3.5438    4.1977 C   0  0  0  0  0  0  0  0  0  0  0  0
   -1.3065    2.3181    4.4841 C   0  0  0  0  0  0  0  0  0  0  0  0
   -0.7776    1.5976    3.4920 C   0  0  0  0  0  0  0  0  0  0  0  0
   -0.0612    1.7049   -0.5930 C   0  0  0  0  0  0  0  0  0  0  0  0
    0.5967    2.8645   -0.7998 C   0  0  0  0  0  0  0  0  0  0  0  0
    0.7406    3.4576   -2.1583 C   0  0  0  0  0  0  0  0  0  0  0  0
    0.2048    2.8300   -3.2392 C   0  0  0  0  0  0  0  0  0  0  0  0
   -0.5155    1.5600   -3.0289 C   0  0  0  0  0  0  0  0  0  0  0  0
   -0.6374    1.0411   -1.7990 C   0  0  0  0  0  0  0  0  0  0  0  0
    0.3178   -0.4720    1.2028 C   0  0  0  0  0  0  0  0  0  0  0  0
    0.6090   -1.3988    0.0548 C   0  0  0  0  0  0  0  0  0  0  0  0
    1.0442   -2.6498    0.2278 C   0  0  0  0  0  0  0  0  0  0  0  0
    1.2629   -3.1926    1.5736 C   0  0  0  0  0  0  0  0  0  0  0  0
    1.0108   -2.4042    2.6392 C   0  0  0  0  0  0  0  0  0  0  0  0
    0.5227   -0.9959    2.4570 C   0  0  0  0  0  0  0  0  0  0  0  0
   -0.3366    2.7748   -5.6877 C   0  0  0  0  0  0  0  0  0  0  0  0
    1.1181    4.5305   -4.7991 C   0  0  0  0  0  0  0  0  0  0  0  0
    1.5957   -5.4959    0.6938 C   0  0  0  0  0  0  0  0  0  0  0  0
    2.3811   -4.9477    2.9745 C   0  0  0  0  0  0  0  0  0  0  0  0
  1  2  1  0  0  0  0
  1 10  1  0  0  0  0
  1 16  1  0  0  0  0
  2  4  2  0  0  0  0
  2  9  1  0  0  0  0
  4  6  1  0  0  0  0
  6  7  2  0  0  0  0
  7  8  1  0  0  0  0
  8  9  2  0  0  0  0
 10 11  2  0  0  0  0
 10 15  1  0  0  0  0
 11 12  1  0  0  0  0
 12 13  2  0  0  0  0
 13  3  1  0  0  0  0
 13 14  1  0  0  0  0
 14 15  2  0  0  0  0
 16 17  2  0  0  0  0
 16 21  1  0  0  0  0
 17 18  1  0  0  0  0
 18 19  2  0  0  0  0
 19  5  1  0  0  0  0
 19 20  1  0  0  0  0
 20 21  2  0  0  0  0
 22  3  1  0  0  0  0
 23  3  1  0  0  0  0
 24  5  1  0  0  0  0
 25  5  1  0  0  0  0
M  END
>  <CHROM.1>
13.27743821,56.04319903,164.85676624,-174.40412549,-20.71304249,0.15213569
0.58540872,0.21429971,1.94636478,1.17372081,-1.02412080

>  <Name>
1q8n_lig

>  <RI>
0

>  <Rbt.Current_Directory>
/home/itssahil/PROJECTS/Mol_Feturizer/New_Systems/rnas/1q8n

>  <Rbt.Executable>
rbdock ($Id: //depot/dev/client3/rdock/2013.1/src/exe/rbdock.cxx#4 $)

>  <Rbt.Library>
libRbt.so (2013.1, Build901 2013/11/27)

>  <Rbt.Parameter_File>
/export/apps/rDock/src/rDock_2013.1_src/data/scripts/dock_solv.prm

>  <Rbt.Receptor>
prm/blind_docking_80.prm

>  <SCORE>
-51.4407

>  <SCORE.INTER>
-51.9493

>  <SCORE.INTER.CONST>
1

>  <SCORE.INTER.POLAR>
0

>  <SCORE.INTER.ROT>
5

>  <SCORE.INTER.SOLV>
11.5888

>  <SCORE.INTER.VDW>
-45.4291

>  <SCORE.INTER.norm>
-2.07797

>  <SCORE.INTRA>
0.508638

>  <SCORE.INTRA.DIHEDRAL>
1.72051

>  <SCORE.INTRA.DIHEDRAL.0>
2.1627

>  <SCORE.INTRA.POLAR>
0

>  <SCORE.INTRA.POLAR.0>
0

>  <SCORE.INTRA.REPUL>
0

>  <SCORE.INTRA.REPUL.0>
0

>  <SCORE.INTRA.SOLV>
0.02735

>  <SCORE.INTRA.SOLV.lig_0>
-5.95779

>  <SCORE.INTRA.VDW>
-0.365291

>  <SCORE.INTRA.VDW.0>
3.81702

>  <SCORE.INTRA.norm>
0.0203455

>  <SCORE.RESTR>
0

>  <SCORE.RESTR.CAVITY>
0

>  <SCORE.RESTR.norm>
0

>  <SCORE.SYSTEM>
0

>  <SCORE.SYSTEM.CONST>
0

>  <SCORE.SYSTEM.DIHEDRAL>
0

>  <SCORE.SYSTEM.SOLV>
0

>  <SCORE.SYSTEM.norm>
0

>  <SCORE.heavy>
25

>  <SCORE.norm>
-2.05763

>  <RMSD>
5.901

$$$$
1q8n_lig
 OpenBabel11021811403D
libRbt.so/2013.1/901 2013/11/27
 25 27  0  0  0  0  0  0  0  0999 V2000
   -0.1852    1.0831    0.8926 C   0  0  0  0  0  0  0  0  0  0  0  0
   -0.8712    2.0054    2.0520 C   0  0  0  0  0  0  0  0  0  0  0  0
    0.3305    3.3692   -4.5782 N   0  0  0  0  0  0  0  0  0  0  0  0
   -1.5390    3.1555    1.7946 C   0  0  0  0  0  0  0  0  0  0  0  0
    1.8198   -4.4927    1.7886 N   0  0  0  0  0  0  0  0  0  0  0  0
   -2.1423    3.9665    2.8773 C   0  0  0  0  0  0  0  0  0  0  0  0
   -2.0325    3.5588    4.1625 C   0  0  0  0  0  0  0  0  0  0  0  0
   -1.3303    2.3319    4.4585 C   0  0  0  0  0  0  0  0  0  0  0  0
   -0.7891    1.6105    3.4738 C   0  0  0  0  0  0  0  0  0  0  0  0
   -0.0452    1.7048   -0.6087 C   0  0  0  0  0  0  0  0  0  0  0  0
   -0.5554    1.0646   -1.6812 C   0  0  0  0  0  0  0  0  0  0  0  0
   -0.4370    1.6173   -3.0590 C   0  0  0  0  0  0  0  0  0  0  0  0
    0.1968    2.8019   -3.2690 C   0  0  0  0  0  0  0  0  0  0  0  0
    0.7579    3.5146   -2.1057 C   0  0  0  0  0  0  0  0  0  0  0  0
    0.6440    3.0020   -0.8725 C   0  0  0  0  0  0  0  0  0  0  0  0
    0.3620   -0.4499    1.2074 C   0  0  0  0  0  0  0  0  0  0  0  0
    0.5554   -1.4215    0.0760 C   0  0  0  0  0  0  0  0  0  0  0  0
    1.0019   -2.6669    0.2606 C   0  0  0  0  0  0  0  0  0  0  0  0
    1.3313   -3.1584    1.6036 C   0  0  0  0  0  0  0  0  0  0  0  0
    1.1699   -2.3284    2.6551 C   0  0  0  0  0  0  0  0  0  0  0  0
    0.6701   -0.9259    2.4596 C   0  0  0  0  0  0  0  0  0  0  0  0
   -0.3046    2.7980   -5.7266 C   0  0  0  0  0  0  0  0  0  0  0  0
    1.1181    4.5466   -4.7745 C   0  0  0  0  0  0  0  0  0  0  0  0
    2.5474   -4.8407    2.9752 C   0  0  0  0  0  0  0  0  0  0  0  0
    1.5911   -5.5196    0.7973 C   0  0  0  0  0  0  0  0  0  0  0  0
  1  2  1  0  0  0  0
  1 10  1  0  0  0  0
  1 16  1  0  0  0  0
  2  4  2  0  0  0  0
  2  9  1  0  0  0  0
  4  6  1  0  0  0  0
  6  7  2  0  0  0  0
  7  8  1  0  0  0  0
  8  9  2  0  0  0  0
 10 11  2  0  0  0  0
 10 15  1  0  0  0  0
 11 12  1  0  0  0  0
 12 13  2  0  0  0  0
 13  3  1  0  0  0  0
 13 14  1  0  0  0  0
 14 15  2  0  0  0  0
 16 17  2  0  0  0  0
 16 21  1  0  0  0  0
 17 18  1  0  0  0  0
 18 19  2  0  0  0  0
 19  5  1  0  0  0  0
 19 20  1  0  0  0  0
 20 21  2  0  0  0  0
 22  3  1  0  0  0  0
 23  3  1  0  0  0  0
 24  5  1  0  0  0  0
 25  5  1  0  0  0  0
M  END
>  <CHROM.1>
12.01143175,-124.62280561,159.63245490,6.31997584,159.28709772,0.18589955
0.61258659,0.21782225,1.95715442,1.16526670,-1.03354899

>  <Name>
1q8n_lig

>  <RI>
0

>  <Rbt.Current_Directory>
/home/itssahil/PROJECTS/Mol_Feturizer/New_Systems/rnas/1q8n

>  <Rbt.Executable>
rbdock ($Id: //depot/dev/client3/rdock/2013.1/src/exe/rbdock.cxx#4 $)

>  <Rbt.Library>
libRbt.so (2013.1, Build901 2013/11/27)

>  <Rbt.Parameter_File>
/export/apps/rDock/src/rDock_2013.1_src/data/scripts/dock_solv.prm

>  <Rbt.Receptor>
prm/blind_docking_80.prm

>  <SCORE>
-51.2272

>  <SCORE.INTER>
-51.7994

>  <SCORE.INTER.CONST>
1

>  <SCORE.INTER.POLAR>
0

>  <SCORE.INTER.ROT>
5

>  <SCORE.INTER.SOLV>
11.6312

>  <SCORE.INTER.VDW>
-45.3433

>  <SCORE.INTER.norm>
-2.07197

>  <SCORE.INTRA>
0.572176

>  <SCORE.INTRA.DIHEDRAL>
1.7541

>  <SCORE.INTRA.DIHEDRAL.0>
2.1627

>  <SCORE.INTRA.POLAR>
0

>  <SCORE.INTRA.POLAR.0>
0

>  <SCORE.INTRA.REPUL>
0

>  <SCORE.INTRA.REPUL.0>
0

>  <SCORE.INTRA.SOLV>
0.0249225

>  <SCORE.INTRA.SOLV.lig_0>
-5.95779

>  <SCORE.INTRA.VDW>
-0.317334

>  <SCORE.INTRA.VDW.0>
3.81702

>  <SCORE.INTRA.norm>
0.022887

>  <SCORE.RESTR>
0

>  <SCORE.RESTR.CAVITY>
0

>  <SCORE.RESTR.norm>
0

>  <SCORE.SYSTEM>
0

>  <SCORE.SYSTEM.CONST>
0

>  <SCORE.SYSTEM.DIHEDRAL>
0

>  <SCORE.SYSTEM.SOLV>
0

>  <SCORE.SYSTEM.norm>
0

>  <SCORE.heavy>
25

>  <SCORE.norm>
-2.04909

>  <RMSD>
5.903

$$$$
1q8n_lig
 OpenBabel11021811403D
libRbt.so/2013.1/901 2013/11/27
 25 27  0  0  0  0  0  0  0  0999 V2000
    1.5190   -2.5579    0.5260 C   0  0  0  0  0  0  0  0  0  0  0  0
    1.5548   -3.4085    1.9191 C   0  0  0  0  0  0  0  0  0  0  0  0
    3.1800   -5.2729   -4.5030 N   0  0  0  0  0  0  0  0  0  0  0  0
    2.6115   -4.1615    2.3082 C   0  0  0  0  0  0  0  0  0  0  0  0
   -0.1498    3.1848    0.1400 N   0  0  0  0  0  0  0  0  0  0  0  0
    2.6012   -4.9233    3.5784 C   0  0  0  0  0  0  0  0  0  0  0  0
    1.5142   -4.8737    4.3822 C   0  0  0  0  0  0  0  0  0  0  0  0
    0.3792   -4.0715    3.9896 C   0  0  0  0  0  0  0  0  0  0  0  0
    0.3999   -3.3907    2.8410 C   0  0  0  0  0  0  0  0  0  0  0  0
    1.9737   -3.3068   -0.8497 C   0  0  0  0  0  0  0  0  0  0  0  0
    1.7798   -4.6308   -1.0223 C   0  0  0  0  0  0  0  0  0  0  0  0
    2.1885   -5.3310   -2.2715 C   0  0  0  0  0  0  0  0  0  0  0  0
    2.7739   -4.6377   -3.2844 C   0  0  0  0  0  0  0  0  0  0  0  0
    2.9905   -3.1889   -3.1110 C   0  0  0  0  0  0  0  0  0  0  0  0
    2.6182   -2.5747   -1.9793 C   0  0  0  0  0  0  0  0  0  0  0  0
    1.0380   -0.9719    0.4844 C   0  0  0  0  0  0  0  0  0  0  0  0
    1.3777   -0.1188   -0.7066 C   0  0  0  0  0  0  0  0  0  0  0  0
    1.0120    1.1620   -0.8066 C   0  0  0  0  0  0  0  0  0  0  0  0
    0.2465    1.8132    0.2628 C   0  0  0  0  0  0  0  0  0  0  0  0
   -0.0792    1.0939    1.3569 C   0  0  0  0  0  0  0  0  0  0  0  0
    0.3250   -0.3471    1.4797 C   0  0  0  0  0  0  0  0  0  0  0  0
    4.5289   -5.2212   -4.9787 C   0  0  0  0  0  0  0  0  0  0  0  0
    2.2273   -5.9912   -5.2915 C   0  0  0  0  0  0  0  0  0  0  0  0
    0.3808    4.0014   -0.9136 C   0  0  0  0  0  0  0  0  0  0  0  0
   -1.0916    3.7790    1.0616 C   0  0  0  0  0  0  0  0  0  0  0  0
  1  2  1  0  0  0  0
  1 10  1  0  0  0  0
  1 16  1  0  0  0  0
  2  4  2  0  0  0  0
  2  9  1  0  0  0  0
  4  6  1  0  0  0  0
  6  7  2  0  0  0  0
  7  8  1  0  0  0  0
  8  9  2  0  0  0  0
 10 11  2  0  0  0  0
 10 15  1  0  0  0  0
 11 12  1  0  0  0  0
 12 13  2  0  0  0  0
 13  3  1  0  0  0  0
 13 14  1  0  0  0  0
 14 15  2  0  0  0  0
 16 17  2  0  0  0  0
 16 21  1  0  0  0  0
 17 18  1  0  0  0  0
 18 19  2  0  0  0  0
 19  5  1  0  0  0  0
 19 20  1  0  0  0  0
 20 21  2  0  0  0  0
 22  3  1  0  0  0  0
 23  3  1  0  0  0  0
 24  5  1  0  0  0  0
 25  5  1  0  0  0  0
M  END
>  <CHROM.1>
47.90107036,31.05696224,162.78119410,-122.84730913,-10.50110600,1.51586675
-2.12030084,-0.28258693,0.12525751,-1.22528597,2.19718531

>  <Name>
1q8n_lig

>  <RI>
0

>  <Rbt.Current_Directory>
/home/itssahil/PROJECTS/Mol_Feturizer/New_Systems/rnas/1q8n

>  <Rbt.Executable>
rbdock ($Id: //depot/dev/client3/rdock/2013.1/src/exe/rbdock.cxx#4 $)

>  <Rbt.Library>
libRbt.so (2013.1, Build901 2013/11/27)

>  <Rbt.Parameter_File>
/export/apps/rDock/src/rDock_2013.1_src/data/scripts/dock_solv.prm

>  <Rbt.Receptor>
prm/blind_docking_40.prm

>  <SCORE>
-43.0334

>  <SCORE.INTER>
-45.4778

>  <SCORE.INTER.CONST>
1

>  <SCORE.INTER.POLAR>
0

>  <SCORE.INTER.ROT>
5

>  <SCORE.INTER.SOLV>
10.9408

>  <SCORE.INTER.VDW>
-40.8988

>  <SCORE.INTER.norm>
-1.81911

>  <SCORE.INTRA>
2.44442

>  <SCORE.INTRA.DIHEDRAL>
9.45621

>  <SCORE.INTRA.DIHEDRAL.0>
2.1627

>  <SCORE.INTRA.POLAR>
0

>  <SCORE.INTRA.POLAR.0>
0

>  <SCORE.INTRA.REPUL>
0

>  <SCORE.INTRA.REPUL.0>
0

>  <SCORE.INTRA.SOLV>
0.0253248

>  <SCORE.INTRA.SOLV.lig_0>
-5.95779

>  <SCORE.INTRA.VDW>
-2.29634

>  <SCORE.INTRA.VDW.0>
3.81702

>  <SCORE.INTRA.norm>
0.097777

>  <SCORE.RESTR>
0

>  <SCORE.RESTR.CAVITY>
0

>  <SCORE.RESTR.norm>
0

>  <SCORE.SYSTEM>
0

>  <SCORE.SYSTEM.CONST>
0

>  <SCORE.SYSTEM.DIHEDRAL>
0

>  <SCORE.SYSTEM.SOLV>
0

>  <SCORE.SYSTEM.norm>
0

>  <SCORE.heavy>
25

>  <SCORE.norm>
-1.72133

>  <RMSD>
5.905

$$$$
1q8n_lig
 OpenBabel11021811403D
libRbt.so/2013.1/901 2013/11/27
 25 27  0  0  0  0  0  0  0  0999 V2000
   -0.2208    1.0357    0.9227 C   0  0  0  0  0  0  0  0  0  0  0  0
   -0.8815    1.9773    2.0813 C   0  0  0  0  0  0  0  0  0  0  0  0
    0.2542    3.2608   -4.5769 N   0  0  0  0  0  0  0  0  0  0  0  0
   -1.5243    3.1411    1.8222 C   0  0  0  0  0  0  0  0  0  0  0  0
    1.7608   -4.5429    1.8527 N   0  0  0  0  0  0  0  0  0  0  0  0
   -2.1051    3.9694    2.9041 C   0  0  0  0  0  0  0  0  0  0  0  0
   -1.9994    3.5640    4.1904 C   0  0  0  0  0  0  0  0  0  0  0  0
   -1.3238    2.3227    4.4883 C   0  0  0  0  0  0  0  0  0  0  0  0
   -0.8027    1.5858    3.5041 C   0  0  0  0  0  0  0  0  0  0  0  0
   -0.0926    1.6409   -0.5865 C   0  0  0  0  0  0  0  0  0  0  0  0
   -0.7306    1.0659   -1.6270 C   0  0  0  0  0  0  0  0  0  0  0  0
   -0.6250    1.6047   -3.0114 C   0  0  0  0  0  0  0  0  0  0  0  0
    0.1281    2.7094   -3.2601 C   0  0  0  0  0  0  0  0  0  0  0  0
    0.8297    3.3503   -2.1319 C   0  0  0  0  0  0  0  0  0  0  0  0
    0.7253    2.8511   -0.8923 C   0  0  0  0  0  0  0  0  0  0  0  0
    0.3126   -0.5004    1.2460 C   0  0  0  0  0  0  0  0  0  0  0  0
    0.6418   -1.4315    0.1118 C   0  0  0  0  0  0  0  0  0  0  0  0
    1.0848   -2.6770    0.3039 C   0  0  0  0  0  0  0  0  0  0  0  0
    1.2748   -3.2090    1.6584 C   0  0  0  0  0  0  0  0  0  0  0  0
    0.9881   -2.4165    2.7121 C   0  0  0  0  0  0  0  0  0  0  0  0
    0.4910   -1.0142    2.5084 C   0  0  0  0  0  0  0  0  0  0  0  0
   -0.4029    2.6869   -5.7115 C   0  0  0  0  0  0  0  0  0  0  0  0
    1.0566    4.4243   -4.7951 C   0  0  0  0  0  0  0  0  0  0  0  0
    2.4302   -4.9008    3.0701 C   0  0  0  0  0  0  0  0  0  0  0  0
    1.5874   -5.5596    0.8398 C   0  0  0  0  0  0  0  0  0  0  0  0
  1  2  1  0  0  0  0
  1 10  1  0  0  0  0
  1 16  1  0  0  0  0
  2  4  2  0  0  0  0
  2  9  1  0  0  0  0
  4  6  1  0  0  0  0
  6  7  2  0  0  0  0
  7  8  1  0  0  0  0
  8  9  2  0  0  0  0
 10 11  2  0  0  0  0
 10 15  1  0  0  0  0
 11 12  1  0  0  0  0
 12 13  2  0  0  0  0
 13  3  1  0  0  0  0
 13 14  1  0  0  0  0
 14 15  2  0  0  0  0
 16 17  2  0  0  0  0
 16 21  1  0  0  0  0
 17 18  1  0  0  0  0
 18 19  2  0  0  0  0
 19  5  1  0  0  0  0
 19 20  1  0  0  0  0
 20 21  2  0  0  0  0
 22  3  1  0  0  0  0
 23  3  1  0  0  0  0
 24  5  1  0  0  0  0
 25  5  1  0  0  0  0
M  END
>  <CHROM.1>
11.13904663,-118.20706903,167.11861861,0.04860309,155.68825129,0.14480303
0.55624470,0.24846706,1.17904884,-1.17298870,2.09034980

>  <Name>
1q8n_lig

>  <RI>
0

>  <Rbt.Current_Directory>
/home/itssahil/PROJECTS/Mol_Feturizer/New_Systems/rnas/1q8n

>  <Rbt.Executable>
rbdock ($Id: //depot/dev/client3/rdock/2013.1/src/exe/rbdock.cxx#4 $)

>  <Rbt.Library>
libRbt.so (2013.1, Build901 2013/11/27)

>  <Rbt.Parameter_File>
/export/apps/rDock/src/rDock_2013.1_src/data/scripts/dock_solv.prm

>  <Rbt.Receptor>
prm/blind_docking_60.prm

>  <SCORE>
-51.3261

>  <SCORE.INTER>
-51.9363

>  <SCORE.INTER.CONST>
1

>  <SCORE.INTER.POLAR>
0

>  <SCORE.INTER.ROT>
5

>  <SCORE.INTER.SOLV>
11.5142

>  <SCORE.INTER.VDW>
-45.3956

>  <SCORE.INTER.norm>
-2.07745

>  <SCORE.INTRA>
0.610143

>  <SCORE.INTRA.DIHEDRAL>
2.16741

>  <SCORE.INTRA.DIHEDRAL.0>
2.1627

>  <SCORE.INTRA.POLAR>
0

>  <SCORE.INTRA.POLAR.0>
0

>  <SCORE.INTRA.REPUL>
0

>  <SCORE.INTRA.REPUL.0>
0

>  <SCORE.INTRA.SOLV>
0.0205856

>  <SCORE.INTRA.SOLV.lig_0>
-5.95779

>  <SCORE.INTRA.VDW>
-0.483853

>  <SCORE.INTRA.VDW.0>
3.81702

>  <SCORE.INTRA.norm>
0.0244057

>  <SCORE.RESTR>
0

>  <SCORE.RESTR.CAVITY>
0

>  <SCORE.RESTR.norm>
0

>  <SCORE.SYSTEM>
0

>  <SCORE.SYSTEM.CONST>
0

>  <SCORE.SYSTEM.DIHEDRAL>
0

>  <SCORE.SYSTEM.SOLV>
0

>  <SCORE.SYSTEM.norm>
0

>  <SCORE.heavy>
25

>  <SCORE.norm>
-2.05305

>  <RMSD>
5.919

$$$$
1q8n_lig
 OpenBabel11021811403D
libRbt.so/2013.1/901 2013/11/27
 25 27  0  0  0  0  0  0  0  0999 V2000
   -0.1006    1.1161    0.8913 C   0  0  0  0  0  0  0  0  0  0  0  0
   -0.7693    1.9303    2.1384 C   0  0  0  0  0  0  0  0  0  0  0  0
    1.7430   -4.4677    1.8105 N   0  0  0  0  0  0  0  0  0  0  0  0
   -0.6946    1.5177    3.4265 C   0  0  0  0  0  0  0  0  0  0  0  0
    0.3706    3.4306   -4.6163 N   0  0  0  0  0  0  0  0  0  0  0  0
   -1.3209    2.2836    4.5288 C   0  0  0  0  0  0  0  0  0  0  0  0
   -1.9875    3.4288    4.2565 C   0  0  0  0  0  0  0  0  0  0  0  0
   -2.0734    3.8903    2.8907 C   0  0  0  0  0  0  0  0  0  0  0  0
   -1.5062    3.1899    1.9054 C   0  0  0  0  0  0  0  0  0  0  0  0
    0.4062   -0.4128    1.1482 C   0  0  0  0  0  0  0  0  0  0  0  0
    0.6625   -0.8647    2.3934 C   0  0  0  0  0  0  0  0  0  0  0  0
    1.1259   -2.2572    2.6467 C   0  0  0  0  0  0  0  0  0  0  0  0
    1.3008   -3.1194    1.6097 C   0  0  0  0  0  0  0  0  0  0  0  0
    1.0223   -2.6402    0.2427 C   0  0  0  0  0  0  0  0  0  0  0  0
    0.6077   -1.3831    0.0324 C   0  0  0  0  0  0  0  0  0  0  0  0
    0.0717    1.8038   -0.6073 C   0  0  0  0  0  0  0  0  0  0  0  0
   -0.4705    1.0988   -1.8200 C   0  0  0  0  0  0  0  0  0  0  0  0
   -0.3733    1.6027   -3.0533 C   0  0  0  0  0  0  0  0  0  0  0  0
    0.2816    2.8945   -3.2904 C   0  0  0  0  0  0  0  0  0  0  0  0
    0.7910    3.5658   -2.2367 C   0  0  0  0  0  0  0  0  0  0  0  0
    0.6863    3.0100   -0.8456 C   0  0  0  0  0  0  0  0  0  0  0  0
    2.3536   -4.8975    3.0316 C   0  0  0  0  0  0  0  0  0  0  0  0
    1.5811   -5.4393    0.7737 C   0  0  0  0  0  0  0  0  0  0  0  0
   -0.3383    2.8103   -5.6984 C   0  0  0  0  0  0  0  0  0  0  0  0
    1.1649    4.6047   -4.8991 C   0  0  0  0  0  0  0  0  0  0  0  0
  1  2  1  0  0  0  0
  1 10  1  0  0  0  0
  1 16  1  0  0  0  0
  2  4  2  0  0  0  0
  2  9  1  0  0  0  0
  4  6  1  0  0  0  0
  6  7  2  0  0  0  0
  7  8  1  0  0  0  0
  8  9  2  0  0  0  0
 10 11  2  0  0  0  0
 10 15  1  0  0  0  0
 11 12  1  0  0  0  0
 12 13  2  0  0  0  0
 13  3  1  0  0  0  0
 13 14  1  0  0  0  0
 14 15  2  0  0  0  0
 16 17  2  0  0  0  0
 16 21  1  0  0  0  0
 17 18  1  0  0  0  0
 18 19  2  0  0  0  0
 19  5  1  0  0  0  0
 19 20  1  0  0  0  0
 20 21  2  0  0  0  0
 22  3  1  0  0  0  0
 23  3  1  0  0  0  0
 24  5  1  0  0  0  0
 25  5  1  0  0  0  0
M  END
>  <CHROM.1>
13.36408862,-20.30662971,-126.65639129,-16.53247059,8.79425866,0.21006515
0.62737247,0.20947377,1.23713556,-1.17476429,2.12819827

>  <Name>
1q8n_lig

>  <RI>
0

>  <Rbt.Current_Directory>
/home/itssahil/PROJECTS/Mol_Feturizer/New_Systems/rnas/1q8n

>  <Rbt.Executable>
rbdock ($Id: //depot/dev/client3/rdock/2013.1/src/exe/rbdock.cxx#4 $)

>  <Rbt.Library>
libRbt.so (2013.1, Build901 2013/11/27)

>  <Rbt.Parameter_File>
/export/apps/rDock/src/rDock_2013.1_src/data/scripts/dock_solv.prm

>  <Rbt.Receptor>
prm/blind_docking_80.prm

>  <SCORE>
-51.0339

>  <SCORE.INTER>
-51.9196

>  <SCORE.INTER.CONST>
1

>  <SCORE.INTER.POLAR>
0

>  <SCORE.INTER.ROT>
5

>  <SCORE.INTER.SOLV>
11.4975

>  <SCORE.INTER.VDW>
-45.3789

>  <SCORE.INTER.norm>
-2.07679

>  <SCORE.INTRA>
0.885745

>  <SCORE.INTRA.DIHEDRAL>
1.33331

>  <SCORE.INTRA.DIHEDRAL.0>
2.1627

>  <SCORE.INTRA.POLAR>
0

>  <SCORE.INTRA.POLAR.0>
0

>  <SCORE.INTRA.REPUL>
0

>  <SCORE.INTRA.REPUL.0>
0

>  <SCORE.INTRA.SOLV>
0.0286294

>  <SCORE.INTRA.SOLV.lig_0>
-5.95779

>  <SCORE.INTRA.VDW>
0.204777

>  <SCORE.INTRA.VDW.0>
3.81702

>  <SCORE.INTRA.norm>
0.0354298

>  <SCORE.RESTR>
0

>  <SCORE.RESTR.CAVITY>
0

>  <SCORE.RESTR.norm>
0

>  <SCORE.SYSTEM>
0

>  <SCORE.SYSTEM.CONST>
0

>  <SCORE.SYSTEM.DIHEDRAL>
0

>  <SCORE.SYSTEM.SOLV>
0

>  <SCORE.SYSTEM.norm>
0

>  <SCORE.heavy>
25

>  <SCORE.norm>
-2.04136

>  <RMSD>
5.930

$$$$
1q8n_lig
 OpenBabel11021811403D
libRbt.so/2013.1/901 2013/11/27
 25 27  0  0  0  0  0  0  0  0999 V2000
    1.6024   -2.5912    0.6427 C   0  0  0  0  0  0  0  0  0  0  0  0
    1.7391   -3.4192    2.0431 C   0  0  0  0  0  0  0  0  0  0  0  0
    3.0085   -5.3529   -4.4385 N   0  0  0  0  0  0  0  0  0  0  0  0
    0.6769   -3.8851    2.7428 C   0  0  0  0  0  0  0  0  0  0  0  0
   -0.1835    3.1177    0.2803 N   0  0  0  0  0  0  0  0  0  0  0  0
    0.8445   -4.6275    4.0134 C   0  0  0  0  0  0  0  0  0  0  0  0
    2.0863   -4.8551    4.4994 C   0  0  0  0  0  0  0  0  0  0  0  0
    3.2330   -4.3729    3.7656 C   0  0  0  0  0  0  0  0  0  0  0  0
    3.0688   -3.7031    2.6221 C   0  0  0  0  0  0  0  0  0  0  0  0
    1.9873   -3.3528   -0.7473 C   0  0  0  0  0  0  0  0  0  0  0  0
    1.7652   -4.6742   -0.9054 C   0  0  0  0  0  0  0  0  0  0  0  0
    2.1103   -5.3860   -2.1673 C   0  0  0  0  0  0  0  0  0  0  0  0
    2.6638   -4.7062   -3.2069 C   0  0  0  0  0  0  0  0  0  0  0  0
    2.9104   -3.2604   -3.0496 C   0  0  0  0  0  0  0  0  0  0  0  0
    2.5955   -2.6358   -1.9062 C   0  0  0  0  0  0  0  0  0  0  0  0
    1.0891   -1.0151    0.6076 C   0  0  0  0  0  0  0  0  0  0  0  0
    1.4111   -0.1504   -0.5799 C   0  0  0  0  0  0  0  0  0  0  0  0
    1.0193    1.1231   -0.6746 C   0  0  0  0  0  0  0  0  0  0  0  0
    0.2407    1.7540    0.3975 C   0  0  0  0  0  0  0  0  0  0  0  0
   -0.0701    1.0238    1.4886 C   0  0  0  0  0  0  0  0  0  0  0  0
    0.3636   -0.4091    1.6055 C   0  0  0  0  0  0  0  0  0  0  0  0
    2.0351   -6.0163   -5.2514 C   0  0  0  0  0  0  0  0  0  0  0  0
    4.3631   -5.3507   -4.8971 C   0  0  0  0  0  0  0  0  0  0  0  0
   -1.1323    3.6642    1.2074 C   0  0  0  0  0  0  0  0  0  0  0  0
    0.3317    3.9768   -0.7618 C   0  0  0  0  0  0  0  0  0  0  0  0
  1  2  1  0  0  0  0
  1 10  1  0  0  0  0
  1 16  1  0  0  0  0
  2  4  2  0  0  0  0
  2  9  1  0  0  0  0
  4  6  1  0  0  0  0
  6  7  2  0  0  0  0
  7  8  1  0  0  0  0
  8  9  2  0  0  0  0
 10 11  2  0  0  0  0
 10 15  1  0  0  0  0
 11 12  1  0  0  0  0
 12 13  2  0  0  0  0
 13  3  1  0  0  0  0
 13 14  1  0  0  0  0
 14 15  2  0  0  0  0
 16 17  2  0  0  0  0
 16 21  1  0  0  0  0
 17 18  1  0  0  0  0
 18 19  2  0  0  0  0
 19  5  1  0  0  0  0
 19 20  1  0  0  0  0
 20 21  2  0  0  0  0
 22  3  1  0  0  0  0
 23  3  1  0  0  0  0
 24  5  1  0  0  0  0
 25  5  1  0  0  0  0
M  END
>  <CHROM.1>
-106.04149949,33.41888461,159.12966988,60.17080877,169.14408647,1.58537709
-2.16748297,-0.17404220,-3.03523460,1.24155699,-1.19753962

>  <Name>
1q8n_lig

>  <RI>
0

>  <Rbt.Current_Directory>
/home/itssahil/PROJECTS/Mol_Feturizer/New_Systems/rnas/1q8n

>  <Rbt.Executable>
rbdock ($Id: //depot/dev/client3/rdock/2013.1/src/exe/rbdock.cxx#4 $)

>  <Rbt.Library>
libRbt.so (2013.1, Build901 2013/11/27)

>  <Rbt.Parameter_File>
/export/apps/rDock/src/rDock_2013.1_src/data/scripts/dock_solv.prm

>  <Rbt.Receptor>
prm/blind_docking_20.prm

>  <SCORE>
-42.4444

>  <SCORE.INTER>
-44.9441

>  <SCORE.INTER.CONST>
1

>  <SCORE.INTER.POLAR>
0

>  <SCORE.INTER.ROT>
5

>  <SCORE.INTER.SOLV>
10.9647

>  <SCORE.INTER.VDW>
-40.551

>  <SCORE.INTER.norm>
-1.79776

>  <SCORE.INTRA>
2.49968

>  <SCORE.INTRA.DIHEDRAL>
10.0837

>  <SCORE.INTRA.DIHEDRAL.0>
2.1627

>  <SCORE.INTRA.POLAR>
0

>  <SCORE.INTRA.POLAR.0>
0

>  <SCORE.INTRA.REPUL>
0

>  <SCORE.INTRA.REPUL.0>
0

>  <SCORE.INTRA.SOLV>
0.0045955

>  <SCORE.INTRA.SOLV.lig_0>
-5.95779

>  <SCORE.INTRA.VDW>
-2.54445

>  <SCORE.INTRA.VDW.0>
3.81702

>  <SCORE.INTRA.norm>
0.0999871

>  <SCORE.RESTR>
0

>  <SCORE.RESTR.CAVITY>
0

>  <SCORE.RESTR.norm>
0

>  <SCORE.SYSTEM>
0

>  <SCORE.SYSTEM.CONST>
0

>  <SCORE.SYSTEM.DIHEDRAL>
0

>  <SCORE.SYSTEM.SOLV>
0

>  <SCORE.SYSTEM.norm>
0

>  <SCORE.heavy>
25

>  <SCORE.norm>
-1.69778

>  <RMSD>
5.938

$$$$
1q8n_lig
 OpenBabel11021811403D
libRbt.so/2013.1/901 2013/11/27
 25 27  0  0  0  0  0  0  0  0999 V2000
   -0.1092    1.0763    0.9101 C   0  0  0  0  0  0  0  0  0  0  0  0
   -0.7719    1.8991    2.1548 C   0  0  0  0  0  0  0  0  0  0  0  0
    1.7868   -4.4827    1.8719 N   0  0  0  0  0  0  0  0  0  0  0  0
   -0.7102    1.4837    3.4427 C   0  0  0  0  0  0  0  0  0  0  0  0
    0.2946    3.3293   -4.6283 N   0  0  0  0  0  0  0  0  0  0  0  0
   -1.3303    2.2577    4.5427 C   0  0  0  0  0  0  0  0  0  0  0  0
   -1.9778    3.4134    4.2686 C   0  0  0  0  0  0  0  0  0  0  0  0
   -2.0496    3.8780    2.9029 C   0  0  0  0  0  0  0  0  0  0  0  0
   -1.4881    3.1702    1.9197 C   0  0  0  0  0  0  0  0  0  0  0  0
    0.4119   -0.4457    1.1787 C   0  0  0  0  0  0  0  0  0  0  0  0
    0.6775   -0.8840    2.4267 C   0  0  0  0  0  0  0  0  0  0  0  0
    1.1540   -2.2701    2.6906 C   0  0  0  0  0  0  0  0  0  0  0  0
    1.3320   -3.1402    1.6608 C   0  0  0  0  0  0  0  0  0  0  0  0
    1.0435   -2.6759    0.2907 C   0  0  0  0  0  0  0  0  0  0  0  0
    0.6171   -1.4244    0.0708 C   0  0  0  0  0  0  0  0  0  0  0  0
    0.0428    1.7487   -0.5977 C   0  0  0  0  0  0  0  0  0  0  0  0
   -0.4737    1.0096   -1.8012 C   0  0  0  0  0  0  0  0  0  0  0  0
   -0.3911    1.4995   -3.0412 C   0  0  0  0  0  0  0  0  0  0  0  0
    0.2211    2.8089   -3.2952 C   0  0  0  0  0  0  0  0  0  0  0  0
    0.7063    3.5111   -2.2502 C   0  0  0  0  0  0  0  0  0  0  0  0
    0.6176    2.9712   -0.8518 C   0  0  0  0  0  0  0  0  0  0  0  0
    1.6505   -5.5009    0.8753 C   0  0  0  0  0  0  0  0  0  0  0  0
    2.4027   -4.8467    3.1101 C   0  0  0  0  0  0  0  0  0  0  0  0
   -0.4037    2.6797   -5.7000 C   0  0  0  0  0  0  0  0  0  0  0  0
    1.0624    4.5166   -4.9288 C   0  0  0  0  0  0  0  0  0  0  0  0
  1  2  1  0  0  0  0
  1 10  1  0  0  0  0
  1 16  1  0  0  0  0
  2  4  2  0  0  0  0
  2  9  1  0  0  0  0
  4  6  1  0  0  0  0
  6  7  2  0  0  0  0
  7  8  1  0  0  0  0
  8  9  2  0  0  0  0
 10 11  2  0  0  0  0
 10 15  1  0  0  0  0
 11 12  1  0  0  0  0
 12 13  2  0  0  0  0
 13  3  1  0  0  0  0
 13 14  1  0  0  0  0
 14 15  2  0  0  0  0
 16 17  2  0  0  0  0
 16 21  1  0  0  0  0
 17 18  1  0  0  0  0
 18 19  2  0  0  0  0
 19  5  1  0  0  0  0
 19 20  1  0  0  0  0
 20 21  2  0  0  0  0
 22  3  1  0  0  0  0
 23  3  1  0  0  0  0
 24  5  1  0  0  0  0
 25  5  1  0  0  0  0
M  END
>  <CHROM.1>
11.63142974,-19.96044886,-128.25994517,163.38016669,9.49365700,0.20119005
0.58243543,0.23239908,1.20688846,-1.17335159,2.08868913

>  <Name>
1q8n_lig

>  <RI>
0

>  <Rbt.Current_Directory>
/home/itssahil/PROJECTS/Mol_Feturizer/New_Systems/rnas/1q8n

>  <Rbt.Executable>
rbdock ($Id: //depot/dev/client3/rdock/2013.1/src/exe/rbdock.cxx#4 $)

>  <Rbt.Library>
libRbt.so (2013.1, Build901 2013/11/27)

>  <Rbt.Parameter_File>
/export/apps/rDock/src/rDock_2013.1_src/data/scripts/dock_solv.prm

>  <Rbt.Receptor>
prm/blind_docking_60.prm

>  <SCORE>
-51.1298

>  <SCORE.INTER>
-52.0641

>  <SCORE.INTER.CONST>
1

>  <SCORE.INTER.POLAR>
0

>  <SCORE.INTER.ROT>
5

>  <SCORE.INTER.SOLV>
11.3405

>  <SCORE.INTER.VDW>
-45.4229

>  <SCORE.INTER.norm>
-2.08256

>  <SCORE.INTRA>
0.934284

>  <SCORE.INTRA.DIHEDRAL>
1.39307

>  <SCORE.INTRA.DIHEDRAL.0>
2.1627

>  <SCORE.INTRA.POLAR>
0

>  <SCORE.INTRA.POLAR.0>
0

>  <SCORE.INTRA.REPUL>
0

>  <SCORE.INTRA.REPUL.0>
0

>  <SCORE.INTRA.SOLV>
0.0316946

>  <SCORE.INTRA.SOLV.lig_0>
-5.95779

>  <SCORE.INTRA.VDW>
0.2219

>  <SCORE.INTRA.VDW.0>
3.81702

>  <SCORE.INTRA.norm>
0.0373713

>  <SCORE.RESTR>
0

>  <SCORE.RESTR.CAVITY>
0

>  <SCORE.RESTR.norm>
0

>  <SCORE.SYSTEM>
0

>  <SCORE.SYSTEM.CONST>
0

>  <SCORE.SYSTEM.DIHEDRAL>
0

>  <SCORE.SYSTEM.SOLV>
0

>  <SCORE.SYSTEM.norm>
0

>  <SCORE.heavy>
25

>  <SCORE.norm>
-2.04519

>  <RMSD>
5.941

$$$$
1q8n_lig
 OpenBabel11021811403D
libRbt.so/2013.1/901 2013/11/27
 25 27  0  0  0  0  0  0  0  0999 V2000
   -0.1833    0.9613    0.8990 C   0  0  0  0  0  0  0  0  0  0  0  0
   -0.7970    1.8234    2.1422 C   0  0  0  0  0  0  0  0  0  0  0  0
    1.7303   -4.5745    1.9546 N   0  0  0  0  0  0  0  0  0  0  0  0
   -0.7035    1.4377    3.4374 C   0  0  0  0  0  0  0  0  0  0  0  0
    0.3370    3.3906   -4.5546 N   0  0  0  0  0  0  0  0  0  0  0  0
   -1.2798    2.2470    4.5360 C   0  0  0  0  0  0  0  0  0  0  0  0
   -1.9181    3.4056    4.2530 C   0  0  0  0  0  0  0  0  0  0  0  0
   -2.0232    3.8387    2.8792 C   0  0  0  0  0  0  0  0  0  0  0  0
   -1.5012    3.0994    1.8974 C   0  0  0  0  0  0  0  0  0  0  0  0
    0.3425   -0.5543    1.1933 C   0  0  0  0  0  0  0  0  0  0  0  0
    0.5792   -0.9805    2.4513 C   0  0  0  0  0  0  0  0  0  0  0  0
    1.0595   -2.3606    2.7387 C   0  0  0  0  0  0  0  0  0  0  0  0
    1.2707   -3.2374    1.7209 C   0  0  0  0  0  0  0  0  0  0  0  0
    1.0141   -2.7864    0.3401 C   0  0  0  0  0  0  0  0  0  0  0  0
    0.5838   -1.5400    0.0991 C   0  0  0  0  0  0  0  0  0  0  0  0
   -0.0848    1.5882   -0.6327 C   0  0  0  0  0  0  0  0  0  0  0  0
    0.6598    2.8735   -0.8678 C   0  0  0  0  0  0  0  0  0  0  0  0
    0.7844    3.4262   -2.0775 C   0  0  0  0  0  0  0  0  0  0  0  0
    0.1878    2.7944   -3.2601 C   0  0  0  0  0  0  0  0  0  0  0  0
   -0.4966    1.6422   -3.1034 C   0  0  0  0  0  0  0  0  0  0  0  0
   -0.6419    1.0108   -1.7488 C   0  0  0  0  0  0  0  0  0  0  0  0
    1.5548   -5.6213    0.9944 C   0  0  0  0  0  0  0  0  0  0  0  0
    2.3914   -4.9037    3.1793 C   0  0  0  0  0  0  0  0  0  0  0  0
   -0.3300    2.8280   -5.6934 C   0  0  0  0  0  0  0  0  0  0  0  0
    1.1515    4.5690   -4.7485 C   0  0  0  0  0  0  0  0  0  0  0  0
  1  2  1  0  0  0  0
  1 10  1  0  0  0  0
  1 16  1  0  0  0  0
  2  4  2  0  0  0  0
  2  9  1  0  0  0  0
  4  6  1  0  0  0  0
  6  7  2  0  0  0  0
  7  8  1  0  0  0  0
  8  9  2  0  0  0  0
 10 11  2  0  0  0  0
 10 15  1  0  0  0  0
 11 12  1  0  0  0  0
 12 13  2  0  0  0  0
 13  3  1  0  0  0  0
 13 14  1  0  0  0  0
 14 15  2  0  0  0  0
 16 17  2  0  0  0  0
 16 21  1  0  0  0  0
 17 18  1  0  0  0  0
 18 19  2  0  0  0  0
 19  5  1  0  0  0  0
 19 20  1  0  0  0  0
 20 21  2  0  0  0  0
 22  3  1  0  0  0  0
 23  3  1  0  0  0  0
 24  5  1  0  0  0  0
 25  5  1  0  0  0  0
M  END
>  <CHROM.1>
10.78975006,-16.10876334,56.46776392,159.51039735,-175.28338651,0.17772462
0.53641112,0.26674661,1.21673453,-1.17968344,2.11417988

>  <Name>
1q8n_lig

>  <RI>
0

>  <Rbt.Current_Directory>
/home/itssahil/PROJECTS/Mol_Feturizer/New_Systems/rnas/1q8n

>  <Rbt.Executable>
rbdock ($Id: //depot/dev/client3/rdock/2013.1/src/exe/rbdock.cxx#4 $)

>  <Rbt.Library>
libRbt.so (2013.1, Build901 2013/11/27)

>  <Rbt.Parameter_File>
/export/apps/rDock/src/rDock_2013.1_src/data/scripts/dock_solv.prm

>  <Rbt.Receptor>
prm/blind_docking_80.prm

>  <SCORE>
-51.2404

>  <SCORE.INTER>
-52.3303

>  <SCORE.INTER.CONST>
1

>  <SCORE.INTER.POLAR>
0

>  <SCORE.INTER.ROT>
5

>  <SCORE.INTER.SOLV>
11.4419

>  <SCORE.INTER.VDW>
-45.6342

>  <SCORE.INTER.norm>
-2.09321

>  <SCORE.INTRA>
1.08989

>  <SCORE.INTRA.DIHEDRAL>
1.65179

>  <SCORE.INTRA.DIHEDRAL.0>
2.1627

>  <SCORE.INTRA.POLAR>
0

>  <SCORE.INTRA.POLAR.0>
0

>  <SCORE.INTRA.REPUL>
0

>  <SCORE.INTRA.REPUL.0>
0

>  <SCORE.INTRA.SOLV>
0.0257135

>  <SCORE.INTRA.SOLV.lig_0>
-5.95779

>  <SCORE.INTRA.VDW>
0.251138

>  <SCORE.INTRA.VDW.0>
3.81702

>  <SCORE.INTRA.norm>
0.0435956

>  <SCORE.RESTR>
0

>  <SCORE.RESTR.CAVITY>
0

>  <SCORE.RESTR.norm>
0

>  <SCORE.SYSTEM>
0

>  <SCORE.SYSTEM.CONST>
0

>  <SCORE.SYSTEM.DIHEDRAL>
0

>  <SCORE.SYSTEM.SOLV>
0

>  <SCORE.SYSTEM.norm>
0

>  <SCORE.heavy>
25

>  <SCORE.norm>
-2.04962

>  <RMSD>
5.941

$$$$
1q8n_lig
 OpenBabel11021811403D
libRbt.so/2013.1/901 2013/11/27
 25 27  0  0  0  0  0  0  0  0999 V2000
   -0.1844    1.0075    0.8603 C   0  0  0  0  0  0  0  0  0  0  0  0
   -0.8165    1.8687    2.0949 C   0  0  0  0  0  0  0  0  0  0  0  0
    1.7685   -4.5004    1.9879 N   0  0  0  0  0  0  0  0  0  0  0  0
   -0.7203    1.4949    3.3934 C   0  0  0  0  0  0  0  0  0  0  0  0
    0.3743    3.4229   -4.5955 N   0  0  0  0  0  0  0  0  0  0  0  0
   -1.3137    2.3028    4.4839 C   0  0  0  0  0  0  0  0  0  0  0  0
   -1.9710    3.4480    4.1898 C   0  0  0  0  0  0  0  0  0  0  0  0
   -2.0794    3.8684    2.8123 C   0  0  0  0  0  0  0  0  0  0  0  0
   -1.5418    3.1304    1.8379 C   0  0  0  0  0  0  0  0  0  0  0  0
    0.3494   -0.5034    1.1643 C   0  0  0  0  0  0  0  0  0  0  0  0
    0.5622   -1.3843    0.1648 C   0  0  0  0  0  0  0  0  0  0  0  0
    1.0493   -2.7677    0.4237 C   0  0  0  0  0  0  0  0  0  0  0  0
    1.2972   -3.1789    1.6960 C   0  0  0  0  0  0  0  0  0  0  0  0
    1.0712   -2.2261    2.7992 C   0  0  0  0  0  0  0  0  0  0  0  0
    0.6307   -0.9852    2.5485 C   0  0  0  0  0  0  0  0  0  0  0  0
   -0.0753    1.6306   -0.6721 C   0  0  0  0  0  0  0  0  0  0  0  0
    0.6743    2.9133   -0.9058 C   0  0  0  0  0  0  0  0  0  0  0  0
    0.8075    3.4629   -2.1159 C   0  0  0  0  0  0  0  0  0  0  0  0
    0.2160    2.8301   -3.3006 C   0  0  0  0  0  0  0  0  0  0  0  0
   -0.4726    1.6802   -3.1453 C   0  0  0  0  0  0  0  0  0  0  0  0
   -0.6275    1.0522   -1.7901 C   0  0  0  0  0  0  0  0  0  0  0  0
    2.4186   -4.8245    3.2211 C   0  0  0  0  0  0  0  0  0  0  0  0
    1.5966   -5.5520    1.0340 C   0  0  0  0  0  0  0  0  0  0  0  0
   -0.2747    2.8501   -5.7396 C   0  0  0  0  0  0  0  0  0  0  0  0
    1.1801    4.6080   -4.7846 C   0  0  0  0  0  0  0  0  0  0  0  0
  1  2  1  0  0  0  0
  1 10  1  0  0  0  0
  1 16  1  0  0  0  0
  2  4  2  0  0  0  0
  2  9  1  0  0  0  0
  4  6  1  0  0  0  0
  6  7  2  0  0  0  0
  7  8  1  0  0  0  0
  8  9  2  0  0  0  0
 10 11  2  0  0  0  0
 10 15  1  0  0  0  0
 11 12  1  0  0  0  0
 12 13  2  0  0  0  0
 13  3  1  0  0  0  0
 13 14  1  0  0  0  0
 14 15  2  0  0  0  0
 16 17  2  0  0  0  0
 16 21  1  0  0  0  0
 17 18  1  0  0  0  0
 18 19  2  0  0  0  0
 19  5  1  0  0  0  0
 19 20  1  0  0  0  0
 20 21  2  0  0  0  0
 22  3  1  0  0  0  0
 23  3  1  0  0  0  0
 24  5  1  0  0  0  0
 25  5  1  0  0  0  0
M  END
>  <CHROM.1>
11.54327489,162.96618435,57.08922385,160.16027552,-176.03979390,0.18784036
0.58737039,0.25282425,1.23210346,-1.16625144,2.11768519

>  <Name>
1q8n_lig

>  <RI>
0

>  <Rbt.Current_Directory>
/home/itssahil/PROJECTS/Mol_Feturizer/New_Systems/rnas/1q8n

>  <Rbt.Executable>
rbdock ($Id: //depot/dev/client3/rdock/2013.1/src/exe/rbdock.cxx#4 $)

>  <Rbt.Library>
libRbt.so (2013.1, Build901 2013/11/27)

>  <Rbt.Parameter_File>
/export/apps/rDock/src/rDock_2013.1_src/data/scripts/dock_solv.prm

>  <Rbt.Receptor>
prm/blind_docking_100.prm

>  <SCORE>
-51.0573

>  <SCORE.INTER>
-51.9375

>  <SCORE.INTER.CONST>
1

>  <SCORE.INTER.POLAR>
0

>  <SCORE.INTER.ROT>
5

>  <SCORE.INTER.SOLV>
11.4247

>  <SCORE.INTER.VDW>
-45.3666

>  <SCORE.INTER.norm>
-2.0775

>  <SCORE.INTRA>
0.880209

>  <SCORE.INTRA.DIHEDRAL>
1.53101

>  <SCORE.INTRA.DIHEDRAL.0>
2.1627

>  <SCORE.INTRA.POLAR>
0

>  <SCORE.INTRA.POLAR.0>
0

>  <SCORE.INTRA.REPUL>
0

>  <SCORE.INTRA.REPUL.0>
0

>  <SCORE.INTRA.SOLV>
0.0273316

>  <SCORE.INTRA.SOLV.lig_0>
-5.95779

>  <SCORE.INTRA.VDW>
0.10104

>  <SCORE.INTRA.VDW.0>
3.81702

>  <SCORE.INTRA.norm>
0.0352084

>  <SCORE.RESTR>
0

>  <SCORE.RESTR.CAVITY>
0

>  <SCORE.RESTR.norm>
0

>  <SCORE.SYSTEM>
0

>  <SCORE.SYSTEM.CONST>
0

>  <SCORE.SYSTEM.DIHEDRAL>
0

>  <SCORE.SYSTEM.SOLV>
0

>  <SCORE.SYSTEM.norm>
0

>  <SCORE.heavy>
25

>  <SCORE.norm>
-2.04229

>  <RMSD>
5.948

$$$$
1q8n_lig
 OpenBabel11021811403D
libRbt.so/2013.1/901 2013/11/27
 25 27  0  0  0  0  0  0  0  0999 V2000
   -0.1752    1.0549    0.8124 C   0  0  0  0  0  0  0  0  0  0  0  0
   -0.8337    1.9657    1.9965 C   0  0  0  0  0  0  0  0  0  0  0  0
    0.3231    3.4081   -4.6315 N   0  0  0  0  0  0  0  0  0  0  0  0
   -1.4814    3.1334    1.7687 C   0  0  0  0  0  0  0  0  0  0  0  0
    1.6669   -4.5097    2.0593 N   0  0  0  0  0  0  0  0  0  0  0  0
   -2.0601    3.9330    2.8731 C   0  0  0  0  0  0  0  0  0  0  0  0
   -1.9474    3.4967    4.1486 C   0  0  0  0  0  0  0  0  0  0  0  0
   -1.2666    2.2507    4.4131 C   0  0  0  0  0  0  0  0  0  0  0  0
   -0.7475    1.5397    3.4090 C   0  0  0  0  0  0  0  0  0  0  0  0
   -0.0370    1.7045   -0.6773 C   0  0  0  0  0  0  0  0  0  0  0  0
    0.6367    2.8560   -0.8785 C   0  0  0  0  0  0  0  0  0  0  0  0
    0.7730    3.4634   -2.2313 C   0  0  0  0  0  0  0  0  0  0  0  0
    0.2135    2.8579   -3.3128 C   0  0  0  0  0  0  0  0  0  0  0  0
   -0.5245    1.5970   -3.1088 C   0  0  0  0  0  0  0  0  0  0  0  0
   -0.6390    1.0650   -1.8839 C   0  0  0  0  0  0  0  0  0  0  0  0
    0.3463   -0.4940    1.0910 C   0  0  0  0  0  0  0  0  0  0  0  0
    0.5687   -0.9654    2.5017 C   0  0  0  0  0  0  0  0  0  0  0  0
    0.9785   -2.2026    2.7946 C   0  0  0  0  0  0  0  0  0  0  0  0
    1.2381   -3.1820    1.7329 C   0  0  0  0  0  0  0  0  0  0  0  0
    1.0598   -2.8082    0.4488 C   0  0  0  0  0  0  0  0  0  0  0  0
    0.5980   -1.4207    0.1075 C   0  0  0  0  0  0  0  0  0  0  0  0
    1.1099    4.5705   -4.9112 C   0  0  0  0  0  0  0  0  0  0  0  0
   -0.3651    2.7957   -5.7255 C   0  0  0  0  0  0  0  0  0  0  0  0
    2.1908   -4.8028    3.3624 C   0  0  0  0  0  0  0  0  0  0  0  0
    1.5797   -5.5843    1.0965 C   0  0  0  0  0  0  0  0  0  0  0  0
  1  2  1  0  0  0  0
  1 10  1  0  0  0  0
  1 16  1  0  0  0  0
  2  4  2  0  0  0  0
  2  9  1  0  0  0  0
  4  6  1  0  0  0  0
  6  7  2  0  0  0  0
  7  8  1  0  0  0  0
  8  9  2  0  0  0  0
 10 11  2  0  0  0  0
 10 15  1  0  0  0  0
 11 12  1  0  0  0  0
 12 13  2  0  0  0  0
 13  3  1  0  0  0  0
 13 14  1  0  0  0  0
 14 15  2  0  0  0  0
 16 17  2  0  0  0  0
 16 21  1  0  0  0  0
 17 18  1  0  0  0  0
 18 19  2  0  0  0  0
 19  5  1  0  0  0  0
 19 20  1  0  0  0  0
 20 21  2  0  0  0  0
 22  3  1  0  0  0  0
 23  3  1  0  0  0  0
 24  5  1  0  0  0  0
 25  5  1  0  0  0  0
M  END
>  <CHROM.1>
11.95479510,56.77268396,-16.55276209,4.83172911,-16.81754618,0.15694543,0.58897139
0.23790852,1.90697687,1.18023346,-1.03207659

>  <Name>
1q8n_lig

>  <RI>
0

>  <Rbt.Current_Directory>
/home/itssahil/PROJECTS/Mol_Feturizer/New_Systems/rnas/1q8n

>  <Rbt.Executable>
rbdock ($Id: //depot/dev/client3/rdock/2013.1/src/exe/rbdock.cxx#4 $)

>  <Rbt.Library>
libRbt.so (2013.1, Build901 2013/11/27)

>  <Rbt.Parameter_File>
/export/apps/rDock/src/rDock_2013.1_src/data/scripts/dock_solv.prm

>  <Rbt.Receptor>
prm/blind_docking_40.prm

>  <SCORE>
-51.3808

>  <SCORE.INTER>
-51.9818

>  <SCORE.INTER.CONST>
1

>  <SCORE.INTER.POLAR>
0

>  <SCORE.INTER.ROT>
5

>  <SCORE.INTER.SOLV>
11.3317

>  <SCORE.INTER.VDW>
-45.3651

>  <SCORE.INTER.norm>
-2.07927

>  <SCORE.INTRA>
0.600945

>  <SCORE.INTRA.DIHEDRAL>
1.16192

>  <SCORE.INTRA.DIHEDRAL.0>
2.1627

>  <SCORE.INTRA.POLAR>
0

>  <SCORE.INTRA.POLAR.0>
0

>  <SCORE.INTRA.REPUL>
0

>  <SCORE.INTRA.REPUL.0>
0

>  <SCORE.INTRA.SOLV>
0.0302825

>  <SCORE.INTRA.SOLV.lig_0>
-5.95779

>  <SCORE.INTRA.VDW>
0.00484212

>  <SCORE.INTRA.VDW.0>
3.81702

>  <SCORE.INTRA.norm>
0.0240378

>  <SCORE.RESTR>
0

>  <SCORE.RESTR.CAVITY>
0

>  <SCORE.RESTR.norm>
0

>  <SCORE.SYSTEM>
0

>  <SCORE.SYSTEM.CONST>
0

>  <SCORE.SYSTEM.DIHEDRAL>
0

>  <SCORE.SYSTEM.SOLV>
0

>  <SCORE.SYSTEM.norm>
0

>  <SCORE.heavy>
25

>  <SCORE.norm>
-2.05523

>  <RMSD>
5.951

$$$$
1q8n_lig
 OpenBabel11021811403D
libRbt.so/2013.1/901 2013/11/27
 25 27  0  0  0  0  0  0  0  0999 V2000
   -0.1631    1.0336    0.8434 C   0  0  0  0  0  0  0  0  0  0  0  0
   -0.8281    1.9427    2.0253 C   0  0  0  0  0  0  0  0  0  0  0  0
    0.3859    3.4336   -4.5751 N   0  0  0  0  0  0  0  0  0  0  0  0
   -1.4858    3.1042    1.7944 C   0  0  0  0  0  0  0  0  0  0  0  0
    1.6691   -4.5342    2.0903 N   0  0  0  0  0  0  0  0  0  0  0  0
   -2.0701    3.9025    2.8967 C   0  0  0  0  0  0  0  0  0  0  0  0
   -1.9526    3.4712    4.1735 C   0  0  0  0  0  0  0  0  0  0  0  0
   -1.2610    2.2319    4.4413 C   0  0  0  0  0  0  0  0  0  0  0  0
   -0.7369    1.5220    3.4390 C   0  0  0  0  0  0  0  0  0  0  0  0
   -0.0138    1.6865   -0.6437 C   0  0  0  0  0  0  0  0  0  0  0  0
   -0.4737    1.0456   -1.7383 C   0  0  0  0  0  0  0  0  0  0  0  0
   -0.3460    1.6266   -3.1036 C   0  0  0  0  0  0  0  0  0  0  0  0
    0.2450    2.8387   -3.2790 C   0  0  0  0  0  0  0  0  0  0  0  0
    0.7508    3.5524   -2.0912 C   0  0  0  0  0  0  0  0  0  0  0  0
    0.6293    3.0142   -0.8697 C   0  0  0  0  0  0  0  0  0  0  0  0
    0.3539   -0.5168    1.1219 C   0  0  0  0  0  0  0  0  0  0  0  0
    0.6078   -0.9784    2.5304 C   0  0  0  0  0  0  0  0  0  0  0  0
    1.0157   -2.2162    2.8233 C   0  0  0  0  0  0  0  0  0  0  0  0
    1.2419   -3.2060    1.7637 C   0  0  0  0  0  0  0  0  0  0  0  0
    1.0346   -2.8413    0.4813 C   0  0  0  0  0  0  0  0  0  0  0  0
    0.5745   -1.4532    0.1401 C   0  0  0  0  0  0  0  0  0  0  0  0
    1.1791    4.6042   -4.7961 C   0  0  0  0  0  0  0  0  0  0  0  0
   -0.2762    2.8597   -5.7053 C   0  0  0  0  0  0  0  0  0  0  0  0
    1.5372   -5.5945    1.1328 C   0  0  0  0  0  0  0  0  0  0  0  0
    2.2457   -4.8411    3.3798 C   0  0  0  0  0  0  0  0  0  0  0  0
  1  2  1  0  0  0  0
  1 10  1  0  0  0  0
  1 16  1  0  0  0  0
  2  4  2  0  0  0  0
  2  9  1  0  0  0  0
  4  6  1  0  0  0  0
  6  7  2  0  0  0  0
  7  8  1  0  0  0  0
  8  9  2  0  0  0  0
 10 11  2  0  0  0  0
 10 15  1  0  0  0  0
 11 12  1  0  0  0  0
 12 13  2  0  0  0  0
 13  3  1  0  0  0  0
 13 14  1  0  0  0  0
 14 15  2  0  0  0  0
 16 17  2  0  0  0  0
 16 21  1  0  0  0  0
 17 18  1  0  0  0  0
 18 19  2  0  0  0  0
 19  5  1  0  0  0  0
 19 20  1  0  0  0  0
 20 21  2  0  0  0  0
 22  3  1  0  0  0  0
 23  3  1  0  0  0  0
 24  5  1  0  0  0  0
 25  5  1  0  0  0  0
M  END
>  <CHROM.1>
12.75094742,-128.34241399,-18.48157257,-170.34242982,162.64947792,0.18387390
0.58822326,0.27903373,1.88965036,1.17777294,-1.00417111

>  <Name>
1q8n_lig

>  <RI>
0

>  <Rbt.Current_Directory>
/home/itssahil/PROJECTS/Mol_Feturizer/New_Systems/rnas/1q8n

>  <Rbt.Executable>
rbdock ($Id: //depot/dev/client3/rdock/2013.1/src/exe/rbdock.cxx#4 $)

>  <Rbt.Library>
libRbt.so (2013.1, Build901 2013/11/27)

>  <Rbt.Parameter_File>
/export/apps/rDock/src/rDock_2013.1_src/data/scripts/dock_solv.prm

>  <Rbt.Receptor>
prm/blind_docking_40.prm

>  <SCORE>
-51.0463

>  <SCORE.INTER>
-51.7656

>  <SCORE.INTER.CONST>
1

>  <SCORE.INTER.POLAR>
0

>  <SCORE.INTER.ROT>
5

>  <SCORE.INTER.SOLV>
11.3294

>  <SCORE.INTER.VDW>
-45.2202

>  <SCORE.INTER.norm>
-2.07062

>  <SCORE.INTRA>
0.719303

>  <SCORE.INTRA.DIHEDRAL>
1.49905

>  <SCORE.INTRA.DIHEDRAL.0>
2.1627

>  <SCORE.INTRA.POLAR>
0

>  <SCORE.INTRA.POLAR.0>
0

>  <SCORE.INTRA.REPUL>
0

>  <SCORE.INTRA.REPUL.0>
0

>  <SCORE.INTRA.SOLV>
0.0322404

>  <SCORE.INTRA.SOLV.lig_0>
-5.95779

>  <SCORE.INTRA.VDW>
-0.0463403

>  <SCORE.INTRA.VDW.0>
3.81702

>  <SCORE.INTRA.norm>
0.0287721

>  <SCORE.RESTR>
0

>  <SCORE.RESTR.CAVITY>
0

>  <SCORE.RESTR.norm>
0

>  <SCORE.SYSTEM>
0

>  <SCORE.SYSTEM.CONST>
0

>  <SCORE.SYSTEM.DIHEDRAL>
0

>  <SCORE.SYSTEM.SOLV>
0

>  <SCORE.SYSTEM.norm>
0

>  <SCORE.heavy>
25

>  <SCORE.norm>
-2.04185

>  <RMSD>
5.953

$$$$
1q8n_lig
 OpenBabel11021811403D
libRbt.so/2013.1/901 2013/11/27
 25 27  0  0  0  0  0  0  0  0999 V2000
    0.7779   -1.0655    0.4714 C   0  0  0  0  0  0  0  0  0  0  0  0
    1.1305   -2.6300    0.1655 C   0  0  0  0  0  0  0  0  0  0  0  0
    0.2840    2.6751   -4.1314 N   0  0  0  0  0  0  0  0  0  0  0  0
    0.9553   -3.6258    1.0669 C   0  0  0  0  0  0  0  0  0  0  0  0
    0.1664    0.8202    6.1268 N   0  0  0  0  0  0  0  0  0  0  0  0
    1.2936   -5.0327    0.7509 C   0  0  0  0  0  0  0  0  0  0  0  0
    1.7905   -5.3464   -0.4676 C   0  0  0  0  0  0  0  0  0  0  0  0
    1.9789   -4.3008   -1.4460 C   0  0  0  0  0  0  0  0  0  0  0  0
    1.6719   -3.0358   -1.1484 C   0  0  0  0  0  0  0  0  0  0  0  0
    0.6479   -0.0405   -0.7906 C   0  0  0  0  0  0  0  0  0  0  0  0
    1.6735    0.1483   -1.6468 C   0  0  0  0  0  0  0  0  0  0  0  0
    1.5726    1.0800   -2.8042 C   0  0  0  0  0  0  0  0  0  0  0  0
    0.4228    1.7707   -3.0284 C   0  0  0  0  0  0  0  0  0  0  0  0
   -0.7079    1.5730   -2.1019 C   0  0  0  0  0  0  0  0  0  0  0  0
   -0.5994    0.7318   -1.0640 C   0  0  0  0  0  0  0  0  0  0  0  0
    0.5545   -0.5076    2.0166 C   0  0  0  0  0  0  0  0  0  0  0  0
    1.3483   -1.1011    3.1476 C   0  0  0  0  0  0  0  0  0  0  0  0
    1.2230   -0.6906    4.4126 C   0  0  0  0  0  0  0  0  0  0  0  0
    0.2847    0.3804    4.7681 C   0  0  0  0  0  0  0  0  0  0  0  0
   -0.4568    0.9431    3.7914 C   0  0  0  0  0  0  0  0  0  0  0  0
   -0.3233    0.4909    2.3657 C   0  0  0  0  0  0  0  0  0  0  0  0
   -0.5248    2.3701   -5.2721 C   0  0  0  0  0  0  0  0  0  0  0  0
    0.9639    3.9332   -4.1195 C   0  0  0  0  0  0  0  0  0  0  0  0
    1.2448    0.6179    7.0511 C   0  0  0  0  0  0  0  0  0  0  0  0
   -1.0294    1.4800    6.6003 C   0  0  0  0  0  0  0  0  0  0  0  0
  1  2  1  0  0  0  0
  1 10  1  0  0  0  0
  1 16  1  0  0  0  0
  2  4  2  0  0  0  0
  2  9  1  0  0  0  0
  4  6  1  0  0  0  0
  6  7  2  0  0  0  0
  7  8  1  0  0  0  0
  8  9  2  0  0  0  0
 10 11  2  0  0  0  0
 10 15  1  0  0  0  0
 11 12  1  0  0  0  0
 12 13  2  0  0  0  0
 13  3  1  0  0  0  0
 13 14  1  0  0  0  0
 14 15  2  0  0  0  0
 16 17  2  0  0  0  0
 16 21  1  0  0  0  0
 17 18  1  0  0  0  0
 18 19  2  0  0  0  0
 19  5  1  0  0  0  0
 19 20  1  0  0  0  0
 20 21  2  0  0  0  0
 22  3  1  0  0  0  0
 23  3  1  0  0  0  0
 24  5  1  0  0  0  0
 25  5  1  0  0  0  0
M  END
>  <CHROM.1>
-163.74441707,-58.35730229,33.86494771,107.72373386,23.27640199,0.63990840
-0.26459283,0.60205597,-1.51348148,-1.32670377,1.79044859

>  <Name>
1q8n_lig

>  <RI>
0

>  <Rbt.Current_Directory>
/home/itssahil/PROJECTS/Mol_Feturizer/New_Systems/rnas/1q8n

>  <Rbt.Executable>
rbdock ($Id: //depot/dev/client3/rdock/2013.1/src/exe/rbdock.cxx#4 $)

>  <Rbt.Library>
libRbt.so (2013.1, Build901 2013/11/27)

>  <Rbt.Parameter_File>
/export/apps/rDock/src/rDock_2013.1_src/data/scripts/dock_solv.prm

>  <Rbt.Receptor>
prm/blind_docking_100.prm

>  <SCORE>
-36.9338

>  <SCORE.INTER>
-40.2439

>  <SCORE.INTER.CONST>
1

>  <SCORE.INTER.POLAR>
0

>  <SCORE.INTER.ROT>
5

>  <SCORE.INTER.SOLV>
8.6598

>  <SCORE.INTER.VDW>
-36.6492

>  <SCORE.INTER.norm>
-1.60975

>  <SCORE.INTRA>
3.28382

>  <SCORE.INTRA.DIHEDRAL>
13.6066

>  <SCORE.INTRA.DIHEDRAL.0>
2.1627

>  <SCORE.INTRA.POLAR>
0

>  <SCORE.INTRA.POLAR.0>
0

>  <SCORE.INTRA.REPUL>
0

>  <SCORE.INTRA.REPUL.0>
0

>  <SCORE.INTRA.SOLV>
0.0137003

>  <SCORE.INTRA.SOLV.lig_0>
-5.95779

>  <SCORE.INTRA.VDW>
-3.52634

>  <SCORE.INTRA.VDW.0>
3.81702

>  <SCORE.INTRA.norm>
0.131353

>  <SCORE.RESTR>
0.0262856

>  <SCORE.RESTR.CAVITY>
0.0262856

>  <SCORE.RESTR.norm>
0.00105143

>  <SCORE.SYSTEM>
0

>  <SCORE.SYSTEM.CONST>
0

>  <SCORE.SYSTEM.DIHEDRAL>
0

>  <SCORE.SYSTEM.SOLV>
0

>  <SCORE.SYSTEM.norm>
0

>  <SCORE.heavy>
25

>  <SCORE.norm>
-1.47735

>  <RMSD>
5.955

$$$$
1q8n_lig
 OpenBabel11021811403D
libRbt.so/2013.1/901 2013/11/27
 25 27  0  0  0  0  0  0  0  0999 V2000
   -0.1761    1.0681    0.8445 C   0  0  0  0  0  0  0  0  0  0  0  0
   -0.8495    1.9696    2.0274 C   0  0  0  0  0  0  0  0  0  0  0  0
    0.3930    3.4647   -4.5734 N   0  0  0  0  0  0  0  0  0  0  0  0
   -1.5163    3.1262    1.7981 C   0  0  0  0  0  0  0  0  0  0  0  0
    1.6547   -4.5048    2.0709 N   0  0  0  0  0  0  0  0  0  0  0  0
   -2.1080    3.9177    2.9014 C   0  0  0  0  0  0  0  0  0  0  0  0
   -1.9882    3.4849    4.1774 C   0  0  0  0  0  0  0  0  0  0  0  0
   -1.2870    2.2507    4.4436 C   0  0  0  0  0  0  0  0  0  0  0  0
   -0.7563    1.5470    3.4405 C   0  0  0  0  0  0  0  0  0  0  0  0
   -0.0187    1.7295   -0.6380 C   0  0  0  0  0  0  0  0  0  0  0  0
    0.6273    2.9006   -0.8163 C   0  0  0  0  0  0  0  0  0  0  0  0
    0.7805    3.5191   -2.1623 C   0  0  0  0  0  0  0  0  0  0  0  0
    0.2657    2.9043   -3.2606 C   0  0  0  0  0  0  0  0  0  0  0  0
   -0.4414    1.6221   -3.0815 C   0  0  0  0  0  0  0  0  0  0  0  0
   -0.5719    1.0802   -1.8626 C   0  0  0  0  0  0  0  0  0  0  0  0
    0.3413   -0.4832    1.1173 C   0  0  0  0  0  0  0  0  0  0  0  0
    0.5798   -0.9549    2.5253 C   0  0  0  0  0  0  0  0  0  0  0  0
    0.9873   -2.1939    2.8136 C   0  0  0  0  0  0  0  0  0  0  0  0
    1.2282   -3.1752    1.7493 C   0  0  0  0  0  0  0  0  0  0  0  0
    1.0350   -2.8013    0.4673 C   0  0  0  0  0  0  0  0  0  0  0  0
    0.5756   -1.4117    0.1312 C   0  0  0  0  0  0  0  0  0  0  0  0
   -0.2735    2.9062   -5.7102 C   0  0  0  0  0  0  0  0  0  0  0  0
    1.2061    4.6219   -4.7853 C   0  0  0  0  0  0  0  0  0  0  0  0
    1.5383   -5.5578    1.1034 C   0  0  0  0  0  0  0  0  0  0  0  0
    2.2153   -4.8204    3.3654 C   0  0  0  0  0  0  0  0  0  0  0  0
  1  2  1  0  0  0  0
  1 10  1  0  0  0  0
  1 16  1  0  0  0  0
  2  4  2  0  0  0  0
  2  9  1  0  0  0  0
  4  6  1  0  0  0  0
  6  7  2  0  0  0  0
  7  8  1  0  0  0  0
  8  9  2  0  0  0  0
 10 11  2  0  0  0  0
 10 15  1  0  0  0  0
 11 12  1  0  0  0  0
 12 13  2  0  0  0  0
 13  3  1  0  0  0  0
 13 14  1  0  0  0  0
 14 15  2  0  0  0  0
 16 17  2  0  0  0  0
 16 21  1  0  0  0  0
 17 18  1  0  0  0  0
 18 19  2  0  0  0  0
 19  5  1  0  0  0  0
 19 20  1  0  0  0  0
 20 21  2  0  0  0  0
 22  3  1  0  0  0  0
 23  3  1  0  0  0  0
 24  5  1  0  0  0  0
 25  5  1  0  0  0  0
M  END
>  <CHROM.1>
13.27639856,54.98866243,-18.13634814,-172.71344779,162.73822820,0.16732834
0.60908861,0.27127563,1.88182099,1.17387973,-0.99976040

>  <Name>
1q8n_lig

>  <RI>
0

>  <Rbt.Current_Directory>
/home/itssahil/PROJECTS/Mol_Feturizer/New_Systems/rnas/1q8n

>  <Rbt.Executable>
rbdock ($Id: //depot/dev/client3/rdock/2013.1/src/exe/rbdock.cxx#4 $)

>  <Rbt.Library>
libRbt.so (2013.1, Build901 2013/11/27)

>  <Rbt.Parameter_File>
/export/apps/rDock/src/rDock_2013.1_src/data/scripts/dock_solv.prm

>  <Rbt.Receptor>
prm/blind_docking_100.prm

>  <SCORE>
-51.153

>  <SCORE.INTER>
-51.8224

>  <SCORE.INTER.CONST>
1

>  <SCORE.INTER.POLAR>
0

>  <SCORE.INTER.ROT>
5

>  <SCORE.INTER.SOLV>
11.3817

>  <SCORE.INTER.VDW>
-45.2755

>  <SCORE.INTER.norm>
-2.0729

>  <SCORE.INTRA>
0.669449

>  <SCORE.INTRA.DIHEDRAL>
1.33271

>  <SCORE.INTRA.DIHEDRAL.0>
2.1627

>  <SCORE.INTRA.POLAR>
0

>  <SCORE.INTRA.POLAR.0>
0

>  <SCORE.INTRA.REPUL>
0

>  <SCORE.INTRA.REPUL.0>
0

>  <SCORE.INTRA.SOLV>
0.0307038

>  <SCORE.INTRA.SOLV.lig_0>
-5.95779

>  <SCORE.INTRA.VDW>
-0.012259

>  <SCORE.INTRA.VDW.0>
3.81702

>  <SCORE.INTRA.norm>
0.0267779

>  <SCORE.RESTR>
0

>  <SCORE.RESTR.CAVITY>
0

>  <SCORE.RESTR.norm>
0

>  <SCORE.SYSTEM>
0

>  <SCORE.SYSTEM.CONST>
0

>  <SCORE.SYSTEM.DIHEDRAL>
0

>  <SCORE.SYSTEM.SOLV>
0

>  <SCORE.SYSTEM.norm>
0

>  <SCORE.heavy>
25

>  <SCORE.norm>
-2.04612

>  <RMSD>
5.956

$$$$
1q8n_lig
 OpenBabel11021811403D
libRbt.so/2013.1/901 2013/11/27
 25 27  0  0  0  0  0  0  0  0999 V2000
   -0.1190    1.1533    0.9064 C   0  0  0  0  0  0  0  0  0  0  0  0
   -0.7858    1.9811    2.1456 C   0  0  0  0  0  0  0  0  0  0  0  0
    1.7515   -4.4042    1.9245 N   0  0  0  0  0  0  0  0  0  0  0  0
   -0.7202    1.5758    3.4364 C   0  0  0  0  0  0  0  0  0  0  0  0
    0.3224    3.4069   -4.6289 N   0  0  0  0  0  0  0  0  0  0  0  0
   -1.3444    2.3539    4.5313 C   0  0  0  0  0  0  0  0  0  0  0  0
   -1.9997    3.5033    4.2491 C   0  0  0  0  0  0  0  0  0  0  0  0
   -2.0758    3.9572    2.8801 C   0  0  0  0  0  0  0  0  0  0  0  0
   -1.5105    3.2457    1.9016 C   0  0  0  0  0  0  0  0  0  0  0  0
    0.3923   -0.3710    1.1803 C   0  0  0  0  0  0  0  0  0  0  0  0
    0.6241   -1.2247    0.1615 C   0  0  0  0  0  0  0  0  0  0  0  0
    1.0911   -2.6197    0.3929 C   0  0  0  0  0  0  0  0  0  0  0  0
    1.3005   -3.0702    1.6588 C   0  0  0  0  0  0  0  0  0  0  0  0
    1.0534   -2.1475    2.7829 C   0  0  0  0  0  0  0  0  0  0  0  0
    0.6314   -0.8955    2.5569 C   0  0  0  0  0  0  0  0  0  0  0  0
    0.0469    1.8231   -0.6011 C   0  0  0  0  0  0  0  0  0  0  0  0
   -0.5373    1.1244   -1.7978 C   0  0  0  0  0  0  0  0  0  0  0  0
   -0.4472    1.6149   -3.0370 C   0  0  0  0  0  0  0  0  0  0  0  0
    0.2412    2.8847   -3.2970 C   0  0  0  0  0  0  0  0  0  0  0  0
    0.7888    3.5495   -2.2583 C   0  0  0  0  0  0  0  0  0  0  0  0
    0.6924    3.0086   -0.8608 C   0  0  0  0  0  0  0  0  0  0  0  0
    2.3367   -4.7776    3.1761 C   0  0  0  0  0  0  0  0  0  0  0  0
    1.6245   -5.4186    0.9244 C   0  0  0  0  0  0  0  0  0  0  0  0
    1.1136    4.5716   -4.9043 C   0  0  0  0  0  0  0  0  0  0  0  0
   -0.3789    2.7780   -5.7254 C   0  0  0  0  0  0  0  0  0  0  0  0
  1  2  1  0  0  0  0
  1 10  1  0  0  0  0
  1 16  1  0  0  0  0
  2  4  2  0  0  0  0
  2  9  1  0  0  0  0
  4  6  1  0  0  0  0
  6  7  2  0  0  0  0
  7  8  1  0  0  0  0
  8  9  2  0  0  0  0
 10 11  2  0  0  0  0
 10 15  1  0  0  0  0
 11 12  1  0  0  0  0
 12 13  2  0  0  0  0
 13  3  1  0  0  0  0
 13 14  1  0  0  0  0
 14 15  2  0  0  0  0
 16 17  2  0  0  0  0
 16 21  1  0  0  0  0
 17 18  1  0  0  0  0
 18 19  2  0  0  0  0
 19  5  1  0  0  0  0
 19 20  1  0  0  0  0
 20 21  2  0  0  0  0
 22  3  1  0  0  0  0
 23  3  1  0  0  0  0
 24  5  1  0  0  0  0
 25  5  1  0  0  0  0
M  END
>  <CHROM.1>
12.51511819,162.55263838,-124.63492842,161.63136416,-173.39709248,0.19240541
0.66320299,0.25203155,1.23240641,-1.17052623,2.10347769

>  <Name>
1q8n_lig

>  <RI>
0

>  <Rbt.Current_Directory>
/home/itssahil/PROJECTS/Mol_Feturizer/New_Systems/rnas/1q8n

>  <Rbt.Executable>
rbdock ($Id: //depot/dev/client3/rdock/2013.1/src/exe/rbdock.cxx#4 $)

>  <Rbt.Library>
libRbt.so (2013.1, Build901 2013/11/27)

>  <Rbt.Parameter_File>
/export/apps/rDock/src/rDock_2013.1_src/data/scripts/dock_solv.prm

>  <Rbt.Receptor>
prm/blind_docking_40.prm

>  <SCORE>
-51.1379

>  <SCORE.INTER>
-51.9934

>  <SCORE.INTER.CONST>
1

>  <SCORE.INTER.POLAR>
0

>  <SCORE.INTER.ROT>
5

>  <SCORE.INTER.SOLV>
11.4516

>  <SCORE.INTER.VDW>
-45.4128

>  <SCORE.INTER.norm>
-2.07974

>  <SCORE.INTRA>
0.855444

>  <SCORE.INTRA.DIHEDRAL>
1.4364

>  <SCORE.INTRA.DIHEDRAL.0>
2.1627

>  <SCORE.INTRA.POLAR>
0

>  <SCORE.INTRA.POLAR.0>
0

>  <SCORE.INTRA.REPUL>
0

>  <SCORE.INTRA.REPUL.0>
0

>  <SCORE.INTRA.SOLV>
0.0302196

>  <SCORE.INTRA.SOLV.lig_0>
-5.95779

>  <SCORE.INTRA.VDW>
0.122137

>  <SCORE.INTRA.VDW.0>
3.81702

>  <SCORE.INTRA.norm>
0.0342178

>  <SCORE.RESTR>
0

>  <SCORE.RESTR.CAVITY>
0

>  <SCORE.RESTR.norm>
0

>  <SCORE.SYSTEM>
0

>  <SCORE.SYSTEM.CONST>
0

>  <SCORE.SYSTEM.DIHEDRAL>
0

>  <SCORE.SYSTEM.SOLV>
0

>  <SCORE.SYSTEM.norm>
0

>  <SCORE.heavy>
25

>  <SCORE.norm>
-2.04552

>  <RMSD>
5.957

$$$$
1q8n_lig
 OpenBabel11021811403D
libRbt.so/2013.1/901 2013/11/27
 25 27  0  0  0  0  0  0  0  0999 V2000
   -0.1681    1.0517    0.8318 C   0  0  0  0  0  0  0  0  0  0  0  0
   -0.8322    1.9616    2.0135 C   0  0  0  0  0  0  0  0  0  0  0  0
    0.3565    3.4096   -4.6076 N   0  0  0  0  0  0  0  0  0  0  0  0
   -1.4743    3.1320    1.7841 C   0  0  0  0  0  0  0  0  0  0  0  0
    1.6764   -4.5110    2.0837 N   0  0  0  0  0  0  0  0  0  0  0  0
   -2.0583    3.9307    2.8864 C   0  0  0  0  0  0  0  0  0  0  0  0
   -1.9563    3.4906    4.1615 C   0  0  0  0  0  0  0  0  0  0  0  0
   -1.2816    2.2417    4.4276 C   0  0  0  0  0  0  0  0  0  0  0  0
   -0.7576    1.5316    3.4254 C   0  0  0  0  0  0  0  0  0  0  0  0
   -0.0227    1.7025   -0.6567 C   0  0  0  0  0  0  0  0  0  0  0  0
    0.6638    2.8469   -0.8556 C   0  0  0  0  0  0  0  0  0  0  0  0
    0.8068    3.4554   -2.2073 C   0  0  0  0  0  0  0  0  0  0  0  0
    0.2408    2.8582   -3.2900 C   0  0  0  0  0  0  0  0  0  0  0  0
   -0.5111    1.6051   -3.0884 C   0  0  0  0  0  0  0  0  0  0  0  0
   -0.6316    1.0720   -1.8645 C   0  0  0  0  0  0  0  0  0  0  0  0
    0.3518   -0.4976    1.1115 C   0  0  0  0  0  0  0  0  0  0  0  0
    0.6175   -0.9539    2.5196 C   0  0  0  0  0  0  0  0  0  0  0  0
    1.0283   -2.1905    2.8137 C   0  0  0  0  0  0  0  0  0  0  0  0
    1.2460   -3.1841    1.7558 C   0  0  0  0  0  0  0  0  0  0  0  0
    1.0279   -2.8242    0.4738 C   0  0  0  0  0  0  0  0  0  0  0  0
    0.5645   -1.4375    0.1314 C   0  0  0  0  0  0  0  0  0  0  0  0
   -0.2995    2.8285   -5.7392 C   0  0  0  0  0  0  0  0  0  0  0  0
    1.1468    4.5806   -4.8300 C   0  0  0  0  0  0  0  0  0  0  0  0
    1.5559   -5.5705    1.1238 C   0  0  0  0  0  0  0  0  0  0  0  0
    2.2449   -4.8172    3.3770 C   0  0  0  0  0  0  0  0  0  0  0  0
  1  2  1  0  0  0  0
  1 10  1  0  0  0  0
  1 16  1  0  0  0  0
  2  4  2  0  0  0  0
  2  9  1  0  0  0  0
  4  6  1  0  0  0  0
  6  7  2  0  0  0  0
  7  8  1  0  0  0  0
  8  9  2  0  0  0  0
 10 11  2  0  0  0  0
 10 15  1  0  0  0  0
 11 12  1  0  0  0  0
 12 13  2  0  0  0  0
 13  3  1  0  0  0  0
 13 14  1  0  0  0  0
 14 15  2  0  0  0  0
 16 17  2  0  0  0  0
 16 21  1  0  0  0  0
 17 18  1  0  0  0  0
 18 19  2  0  0  0  0
 19  5  1  0  0  0  0
 19 20  1  0  0  0  0
 20 21  2  0  0  0  0
 22  3  1  0  0  0  0
 23  3  1  0  0  0  0
 24  5  1  0  0  0  0
 25  5  1  0  0  0  0
M  END
>  <CHROM.1>
11.70506305,57.45615695,-18.87314398,-176.37210089,163.61892641,0.17068049
0.58885741,0.25913936,1.89934871,1.17756694,-1.02327197

>  <Name>
1q8n_lig

>  <RI>
0

>  <Rbt.Current_Directory>
/home/itssahil/PROJECTS/Mol_Feturizer/New_Systems/rnas/1q8n

>  <Rbt.Executable>
rbdock ($Id: //depot/dev/client3/rdock/2013.1/src/exe/rbdock.cxx#4 $)

>  <Rbt.Library>
libRbt.so (2013.1, Build901 2013/11/27)

>  <Rbt.Parameter_File>
/export/apps/rDock/src/rDock_2013.1_src/data/scripts/dock_solv.prm

>  <Rbt.Receptor>
prm/blind_docking_60.prm

>  <SCORE>
-51.27

>  <SCORE.INTER>
-51.8867

>  <SCORE.INTER.CONST>
1

>  <SCORE.INTER.POLAR>
0

>  <SCORE.INTER.ROT>
5

>  <SCORE.INTER.SOLV>
11.3537

>  <SCORE.INTER.VDW>
-45.309

>  <SCORE.INTER.norm>
-2.07547

>  <SCORE.INTRA>
0.616619

>  <SCORE.INTRA.DIHEDRAL>
1.06905

>  <SCORE.INTRA.DIHEDRAL.0>
2.1627

>  <SCORE.INTRA.POLAR>
0

>  <SCORE.INTRA.POLAR.0>
0

>  <SCORE.INTRA.REPUL>
0

>  <SCORE.INTRA.REPUL.0>
0

>  <SCORE.INTRA.SOLV>
0.0287608

>  <SCORE.INTRA.SOLV.lig_0>
-5.95779

>  <SCORE.INTRA.VDW>
0.067712

>  <SCORE.INTRA.VDW.0>
3.81702

>  <SCORE.INTRA.norm>
0.0246648

>  <SCORE.RESTR>
0

>  <SCORE.RESTR.CAVITY>
0

>  <SCORE.RESTR.norm>
0

>  <SCORE.SYSTEM>
0

>  <SCORE.SYSTEM.CONST>
0

>  <SCORE.SYSTEM.DIHEDRAL>
0

>  <SCORE.SYSTEM.SOLV>
0

>  <SCORE.SYSTEM.norm>
0

>  <SCORE.heavy>
25

>  <SCORE.norm>
-2.0508

>  <RMSD>
5.958

$$$$
1q8n_lig
 OpenBabel11021811403D
libRbt.so/2013.1/901 2013/11/27
 25 27  0  0  0  0  0  0  0  0999 V2000
   -0.1448    1.0931    0.7993 C   0  0  0  0  0  0  0  0  0  0  0  0
   -0.8017    1.9403    2.0306 C   0  0  0  0  0  0  0  0  0  0  0  0
    1.7555   -4.4461    1.8617 N   0  0  0  0  0  0  0  0  0  0  0  0
   -1.4599    3.1124    1.8640 C   0  0  0  0  0  0  0  0  0  0  0  0
    0.2040    3.2617   -4.7764 N   0  0  0  0  0  0  0  0  0  0  0  0
   -2.0367    3.8531    3.0097 C   0  0  0  0  0  0  0  0  0  0  0  0
   -1.9115    3.3565    4.2618 C   0  0  0  0  0  0  0  0  0  0  0  0
   -1.2192    2.1047    4.4610 C   0  0  0  0  0  0  0  0  0  0  0  0
   -0.7019    1.4473    3.4202 C   0  0  0  0  0  0  0  0  0  0  0  0
    0.3775   -0.4234    1.0954 C   0  0  0  0  0  0  0  0  0  0  0  0
    0.6520   -0.8360    2.3503 C   0  0  0  0  0  0  0  0  0  0  0  0
    1.1297   -2.2167    2.6392 C   0  0  0  0  0  0  0  0  0  0  0  0
    1.2998   -3.1079    1.6263 C   0  0  0  0  0  0  0  0  0  0  0  0
    1.0016   -2.6718    0.2490 C   0  0  0  0  0  0  0  0  0  0  0  0
    0.5742   -1.4248    0.0065 C   0  0  0  0  0  0  0  0  0  0  0  0
    0.0004    1.7356   -0.7222 C   0  0  0  0  0  0  0  0  0  0  0  0
   -0.7011    1.0809   -1.8801 C   0  0  0  0  0  0  0  0  0  0  0  0
   -0.6329    1.5532   -3.1277 C   0  0  0  0  0  0  0  0  0  0  0  0
    0.1466    2.7578   -3.4362 C   0  0  0  0  0  0  0  0  0  0  0  0
    0.8008    3.3807   -2.4339 C   0  0  0  0  0  0  0  0  0  0  0  0
    0.7301    2.8598   -1.0273 C   0  0  0  0  0  0  0  0  0  0  0  0
    1.5700   -5.4953    0.9061 C   0  0  0  0  0  0  0  0  0  0  0  0
    2.4225   -4.7739    3.0835 C   0  0  0  0  0  0  0  0  0  0  0  0
   -0.5035    2.5962   -5.8323 C   0  0  0  0  0  0  0  0  0  0  0  0
    0.9642    4.4478   -5.1001 C   0  0  0  0  0  0  0  0  0  0  0  0
  1  2  1  0  0  0  0
  1 10  1  0  0  0  0
  1 16  1  0  0  0  0
  2  4  2  0  0  0  0
  2  9  1  0  0  0  0
  4  6  1  0  0  0  0
  6  7  2  0  0  0  0
  7  8  1  0  0  0  0
  8  9  2  0  0  0  0
 10 11  2  0  0  0  0
 10 15  1  0  0  0  0
 11 12  1  0  0  0  0
 12 13  2  0  0  0  0
 13  3  1  0  0  0  0
 13 14  1  0  0  0  0
 14 15  2  0  0  0  0
 16 17  2  0  0  0  0
 16 21  1  0  0  0  0
 17 18  1  0  0  0  0
 18 19  2  0  0  0  0
 19  5  1  0  0  0  0
 19 20  1  0  0  0  0
 20 21  2  0  0  0  0
 22  3  1  0  0  0  0
 23  3  1  0  0  0  0
 24  5  1  0  0  0  0
 25  5  1  0  0  0  0
M  END
>  <CHROM.1>
-169.01394314,-20.12389269,-118.97109201,161.16531837,0.17563614,0.16839805
0.56614017,0.15702133,1.20929987,-1.18080458,2.04922271

>  <Name>
1q8n_lig

>  <RI>
0

>  <Rbt.Current_Directory>
/home/itssahil/PROJECTS/Mol_Feturizer/New_Systems/rnas/1q8n

>  <Rbt.Executable>
rbdock ($Id: //depot/dev/client3/rdock/2013.1/src/exe/rbdock.cxx#4 $)

>  <Rbt.Library>
libRbt.so (2013.1, Build901 2013/11/27)

>  <Rbt.Parameter_File>
/export/apps/rDock/src/rDock_2013.1_src/data/scripts/dock_solv.prm

>  <Rbt.Receptor>
prm/blind_docking_20.prm

>  <SCORE>
-50.5776

>  <SCORE.INTER>
-51.6946

>  <SCORE.INTER.CONST>
1

>  <SCORE.INTER.POLAR>
0

>  <SCORE.INTER.ROT>
5

>  <SCORE.INTER.SOLV>
11.297

>  <SCORE.INTER.VDW>
-45.162

>  <SCORE.INTER.norm>
-2.06778

>  <SCORE.INTRA>
1.11699

>  <SCORE.INTRA.DIHEDRAL>
1.33187

>  <SCORE.INTRA.DIHEDRAL.0>
2.1627

>  <SCORE.INTRA.POLAR>
0

>  <SCORE.INTRA.POLAR.0>
0

>  <SCORE.INTRA.REPUL>
0

>  <SCORE.INTRA.REPUL.0>
0

>  <SCORE.INTRA.SOLV>
0.0292633

>  <SCORE.INTRA.SOLV.lig_0>
-5.95779

>  <SCORE.INTRA.VDW>
0.43642

>  <SCORE.INTRA.VDW.0>
3.81702

>  <SCORE.INTRA.norm>
0.0446794

>  <SCORE.RESTR>
0

>  <SCORE.RESTR.CAVITY>
0

>  <SCORE.RESTR.norm>
0

>  <SCORE.SYSTEM>
0

>  <SCORE.SYSTEM.CONST>
0

>  <SCORE.SYSTEM.DIHEDRAL>
0

>  <SCORE.SYSTEM.SOLV>
0

>  <SCORE.SYSTEM.norm>
0

>  <SCORE.heavy>
25

>  <SCORE.norm>
-2.0231

>  <RMSD>
5.965

$$$$
1q8n_lig
 OpenBabel11021811403D
libRbt.so/2013.1/901 2013/11/27
 25 27  0  0  0  0  0  0  0  0999 V2000
   -0.2137    1.0562    0.9165 C   0  0  0  0  0  0  0  0  0  0  0  0
   -0.8452    1.9381    2.1367 C   0  0  0  0  0  0  0  0  0  0  0  0
    1.7250   -4.4451    2.0993 N   0  0  0  0  0  0  0  0  0  0  0  0
   -0.7684    1.5746    3.4393 C   0  0  0  0  0  0  0  0  0  0  0  0
    0.3368    3.3872   -4.5768 N   0  0  0  0  0  0  0  0  0  0  0  0
   -1.3603    2.4014    4.5163 C   0  0  0  0  0  0  0  0  0  0  0  0
   -1.9966    3.5539    4.2053 C   0  0  0  0  0  0  0  0  0  0  0  0
   -2.0841    3.9636    2.8231 C   0  0  0  0  0  0  0  0  0  0  0  0
   -1.5480    3.2086    1.8609 C   0  0  0  0  0  0  0  0  0  0  0  0
    0.3193   -0.4498    1.2455 C   0  0  0  0  0  0  0  0  0  0  0  0
    0.6437   -0.8178    2.5023 C   0  0  0  0  0  0  0  0  0  0  0  0
    1.1319   -2.1882    2.8211 C   0  0  0  0  0  0  0  0  0  0  0  0
    1.2609   -3.1154    1.8346 C   0  0  0  0  0  0  0  0  0  0  0  0
    0.9079   -2.7281    0.4557 C   0  0  0  0  0  0  0  0  0  0  0  0
    0.4717   -1.4898    0.1860 C   0  0  0  0  0  0  0  0  0  0  0  0
   -0.1046    1.6537   -0.6261 C   0  0  0  0  0  0  0  0  0  0  0  0
    0.5960    2.9612   -0.8734 C   0  0  0  0  0  0  0  0  0  0  0  0
    0.7268    3.4925   -2.0920 C   0  0  0  0  0  0  0  0  0  0  0  0
    0.1812    2.8133   -3.2730 C   0  0  0  0  0  0  0  0  0  0  0  0
   -0.4625    1.6394   -3.1058 C   0  0  0  0  0  0  0  0  0  0  0  0
   -0.6143    1.0318   -1.7410 C   0  0  0  0  0  0  0  0  0  0  0  0
    2.3656   -4.7999    3.3290 C   0  0  0  0  0  0  0  0  0  0  0  0
    1.5552   -5.4739    1.1205 C   0  0  0  0  0  0  0  0  0  0  0  0
   -0.3308    2.8095   -5.7078 C   0  0  0  0  0  0  0  0  0  0  0  0
    1.1584    4.5575   -4.7882 C   0  0  0  0  0  0  0  0  0  0  0  0
  1  2  1  0  0  0  0
  1 10  1  0  0  0  0
  1 16  1  0  0  0  0
  2  4  2  0  0  0  0
  2  9  1  0  0  0  0
  4  6  1  0  0  0  0
  6  7  2  0  0  0  0
  7  8  1  0  0  0  0
  8  9  2  0  0  0  0
 10 11  2  0  0  0  0
 10 15  1  0  0  0  0
 11 12  1  0  0  0  0
 12 13  2  0  0  0  0
 13  3  1  0  0  0  0
 13 14  1  0  0  0  0
 14 15  2  0  0  0  0
 16 17  2  0  0  0  0
 16 21  1  0  0  0  0
 17 18  1  0  0  0  0
 18 19  2  0  0  0  0
 19  5  1  0  0  0  0
 19 20  1  0  0  0  0
 20 21  2  0  0  0  0
 22  3  1  0  0  0  0
 23  3  1  0  0  0  0
 24  5  1  0  0  0  0
 25  5  1  0  0  0  0
M  END
>  <CHROM.1>
10.39691620,-21.21218585,54.53745189,-14.60394173,-172.52216511,0.15288029
0.62181801,0.29474860,1.22335656,-1.17237572,2.10267188

>  <Name>
1q8n_lig

>  <RI>
0

>  <Rbt.Current_Directory>
/home/itssahil/PROJECTS/Mol_Feturizer/New_Systems/rnas/1q8n

>  <Rbt.Executable>
rbdock ($Id: //depot/dev/client3/rdock/2013.1/src/exe/rbdock.cxx#4 $)

>  <Rbt.Library>
libRbt.so (2013.1, Build901 2013/11/27)

>  <Rbt.Parameter_File>
/export/apps/rDock/src/rDock_2013.1_src/data/scripts/dock_solv.prm

>  <Rbt.Receptor>
prm/blind_docking_60.prm

>  <SCORE>
-51.036

>  <SCORE.INTER>
-51.9228

>  <SCORE.INTER.CONST>
1

>  <SCORE.INTER.POLAR>
0

>  <SCORE.INTER.ROT>
5

>  <SCORE.INTER.SOLV>
11.4771

>  <SCORE.INTER.VDW>
-45.3742

>  <SCORE.INTER.norm>
-2.07691

>  <SCORE.INTRA>
0.886731

>  <SCORE.INTRA.DIHEDRAL>
1.02739

>  <SCORE.INTRA.DIHEDRAL.0>
2.1627

>  <SCORE.INTRA.POLAR>
0

>  <SCORE.INTRA.POLAR.0>
0

>  <SCORE.INTRA.REPUL>
0

>  <SCORE.INTRA.REPUL.0>
0

>  <SCORE.INTRA.SOLV>
0.0261581

>  <SCORE.INTRA.SOLV.lig_0>
-5.95779

>  <SCORE.INTRA.VDW>
0.359958

>  <SCORE.INTRA.VDW.0>
3.81702

>  <SCORE.INTRA.norm>
0.0354692

>  <SCORE.RESTR>
0

>  <SCORE.RESTR.CAVITY>
0

>  <SCORE.RESTR.norm>
0

>  <SCORE.SYSTEM>
0

>  <SCORE.SYSTEM.CONST>
0

>  <SCORE.SYSTEM.DIHEDRAL>
0

>  <SCORE.SYSTEM.SOLV>
0

>  <SCORE.SYSTEM.norm>
0

>  <SCORE.heavy>
25

>  <SCORE.norm>
-2.04144

>  <RMSD>
5.967

$$$$
1q8n_lig
 OpenBabel11021811403D
libRbt.so/2013.1/901 2013/11/27
 25 27  0  0  0  0  0  0  0  0999 V2000
   -0.1964    1.1055    0.8527 C   0  0  0  0  0  0  0  0  0  0  0  0
   -0.8454    1.9683    2.0773 C   0  0  0  0  0  0  0  0  0  0  0  0
    1.5969   -4.4570    1.9772 N   0  0  0  0  0  0  0  0  0  0  0  0
   -0.7718    1.5935    3.3769 C   0  0  0  0  0  0  0  0  0  0  0  0
    0.2322    3.2578   -4.7238 N   0  0  0  0  0  0  0  0  0  0  0  0
   -1.3798    2.4029    4.4581 C   0  0  0  0  0  0  0  0  0  0  0  0
   -2.0279    3.5508    4.1541 C   0  0  0  0  0  0  0  0  0  0  0  0
   -2.1122    3.9724    2.7753 C   0  0  0  0  0  0  0  0  0  0  0  0
   -1.5616    3.2329    1.8094 C   0  0  0  0  0  0  0  0  0  0  0  0
    0.2936   -0.4204    1.1558 C   0  0  0  0  0  0  0  0  0  0  0  0
    0.4840   -1.3055    0.1555 C   0  0  0  0  0  0  0  0  0  0  0  0
    0.9310   -2.7024    0.4137 C   0  0  0  0  0  0  0  0  0  0  0  0
    1.1639   -3.1223    1.6860 C   0  0  0  0  0  0  0  0  0  0  0  0
    0.9622   -2.1650    2.7900 C   0  0  0  0  0  0  0  0  0  0  0  0
    0.5576   -0.9118    2.5400 C   0  0  0  0  0  0  0  0  0  0  0  0
   -0.0276    1.7416   -0.6690 C   0  0  0  0  0  0  0  0  0  0  0  0
   -0.7549    1.1144   -1.8262 C   0  0  0  0  0  0  0  0  0  0  0  0
   -0.6693    1.5835   -3.0740 C   0  0  0  0  0  0  0  0  0  0  0  0
    0.1562    2.7567   -3.3834 C   0  0  0  0  0  0  0  0  0  0  0  0
    0.8349    3.3539   -2.3818 C   0  0  0  0  0  0  0  0  0  0  0  0
    0.7451    2.8365   -0.9750 C   0  0  0  0  0  0  0  0  0  0  0  0
    1.4607   -5.5266    1.0360 C   0  0  0  0  0  0  0  0  0  0  0  0
    2.1900   -4.7604    3.2426 C   0  0  0  0  0  0  0  0  0  0  0  0
   -0.4468    2.5803   -5.7907 C   0  0  0  0  0  0  0  0  0  0  0  0
    0.9830    4.4527   -5.0367 C   0  0  0  0  0  0  0  0  0  0  0  0
  1  2  1  0  0  0  0
  1 10  1  0  0  0  0
  1 16  1  0  0  0  0
  2  4  2  0  0  0  0
  2  9  1  0  0  0  0
  4  6  1  0  0  0  0
  6  7  2  0  0  0  0
  7  8  1  0  0  0  0
  8  9  2  0  0  0  0
 10 11  2  0  0  0  0
 10 15  1  0  0  0  0
 11 12  1  0  0  0  0
 12 13  2  0  0  0  0
 13  3  1  0  0  0  0
 13 14  1  0  0  0  0
 14 15  2  0  0  0  0
 16 17  2  0  0  0  0
 16 21  1  0  0  0  0
 17 18  1  0  0  0  0
 18 19  2  0  0  0  0
 19  5  1  0  0  0  0
 19 20  1  0  0  0  0
 20 21  2  0  0  0  0
 22  3  1  0  0  0  0
 23  3  1  0  0  0  0
 24  5  1  0  0  0  0
 25  5  1  0  0  0  0
M  END
>  <CHROM.1>
12.99384202,161.29339729,-117.77621429,-17.74932941,-2.99900757,0.09956834
0.60317157,0.21078099,1.23406752,-1.18467129,2.08541891

>  <Name>
1q8n_lig

>  <RI>
0

>  <Rbt.Current_Directory>
/home/itssahil/PROJECTS/Mol_Feturizer/New_Systems/rnas/1q8n

>  <Rbt.Executable>
rbdock ($Id: //depot/dev/client3/rdock/2013.1/src/exe/rbdock.cxx#4 $)

>  <Rbt.Library>
libRbt.so (2013.1, Build901 2013/11/27)

>  <Rbt.Parameter_File>
/export/apps/rDock/src/rDock_2013.1_src/data/scripts/dock_solv.prm

>  <Rbt.Receptor>
prm/blind_docking_60.prm

>  <SCORE>
-51.0768

>  <SCORE.INTER>
-51.7887

>  <SCORE.INTER.CONST>
1

>  <SCORE.INTER.POLAR>
0

>  <SCORE.INTER.ROT>
5

>  <SCORE.INTER.SOLV>
11.2886

>  <SCORE.INTER.VDW>
-45.222

>  <SCORE.INTER.norm>
-2.07155

>  <SCORE.INTRA>
0.711847

>  <SCORE.INTRA.DIHEDRAL>
1.22074

>  <SCORE.INTRA.DIHEDRAL.0>
2.1627

>  <SCORE.INTRA.POLAR>
0

>  <SCORE.INTRA.POLAR.0>
0

>  <SCORE.INTRA.REPUL>
0

>  <SCORE.INTRA.REPUL.0>
0

>  <SCORE.INTRA.SOLV>
0.0227667

>  <SCORE.INTRA.SOLV.lig_0>
-5.95779

>  <SCORE.INTRA.VDW>
0.0900913

>  <SCORE.INTRA.VDW.0>
3.81702

>  <SCORE.INTRA.norm>
0.0284739

>  <SCORE.RESTR>
0

>  <SCORE.RESTR.CAVITY>
0

>  <SCORE.RESTR.norm>
0

>  <SCORE.SYSTEM>
0

>  <SCORE.SYSTEM.CONST>
0

>  <SCORE.SYSTEM.DIHEDRAL>
0

>  <SCORE.SYSTEM.SOLV>
0

>  <SCORE.SYSTEM.norm>
0

>  <SCORE.heavy>
25

>  <SCORE.norm>
-2.04307

>  <RMSD>
5.970

$$$$
1q8n_lig
 OpenBabel11021811403D
libRbt.so/2013.1/901 2013/11/27
 25 27  0  0  0  0  0  0  0  0999 V2000
   -0.1582    1.1320    0.8159 C   0  0  0  0  0  0  0  0  0  0  0  0
   -0.8238    1.9845    2.0389 C   0  0  0  0  0  0  0  0  0  0  0  0
    1.7453   -4.3982    1.9182 N   0  0  0  0  0  0  0  0  0  0  0  0
   -1.4938    3.1483    1.8608 C   0  0  0  0  0  0  0  0  0  0  0  0
    0.2197    3.2722   -4.7688 N   0  0  0  0  0  0  0  0  0  0  0  0
   -2.0781    3.8943    2.9993 C   0  0  0  0  0  0  0  0  0  0  0  0
   -1.9480    3.4112    4.2561 C   0  0  0  0  0  0  0  0  0  0  0  0
   -1.2432    2.1685    4.4676 C   0  0  0  0  0  0  0  0  0  0  0  0
   -0.7192    1.5061    3.4332 C   0  0  0  0  0  0  0  0  0  0  0  0
    0.3648   -0.3821    1.1230 C   0  0  0  0  0  0  0  0  0  0  0  0
    0.5978   -0.7990    2.3849 C   0  0  0  0  0  0  0  0  0  0  0  0
    1.0754   -2.1776    2.6839 C   0  0  0  0  0  0  0  0  0  0  0  0
    1.2881   -3.0623    1.6733 C   0  0  0  0  0  0  0  0  0  0  0  0
    1.0355   -2.6215    0.2884 C   0  0  0  0  0  0  0  0  0  0  0  0
    0.6075   -1.3764    0.0369 C   0  0  0  0  0  0  0  0  0  0  0  0
   -0.0051    1.7668   -0.7080 C   0  0  0  0  0  0  0  0  0  0  0  0
   -0.6997    1.1056   -1.8664 C   0  0  0  0  0  0  0  0  0  0  0  0
   -0.6249    1.5715   -3.1160 C   0  0  0  0  0  0  0  0  0  0  0  0
    0.1553    2.7752   -3.4264 C   0  0  0  0  0  0  0  0  0  0  0  0
    0.8034    3.4037   -2.4237 C   0  0  0  0  0  0  0  0  0  0  0  0
    0.7254    2.8901   -1.0148 C   0  0  0  0  0  0  0  0  0  0  0  0
    1.5716   -5.4518    0.9652 C   0  0  0  0  0  0  0  0  0  0  0  0
    2.4019   -4.7193    3.1475 C   0  0  0  0  0  0  0  0  0  0  0  0
   -0.4688    2.5919   -5.8279 C   0  0  0  0  0  0  0  0  0  0  0  0
    0.9682    4.4659   -5.0918 C   0  0  0  0  0  0  0  0  0  0  0  0
  1  2  1  0  0  0  0
  1 10  1  0  0  0  0
  1 16  1  0  0  0  0
  2  4  2  0  0  0  0
  2  9  1  0  0  0  0
  4  6  1  0  0  0  0
  6  7  2  0  0  0  0
  7  8  1  0  0  0  0
  8  9  2  0  0  0  0
 10 11  2  0  0  0  0
 10 15  1  0  0  0  0
 11 12  1  0  0  0  0
 12 13  2  0  0  0  0
 13  3  1  0  0  0  0
 13 14  1  0  0  0  0
 14 15  2  0  0  0  0
 16 17  2  0  0  0  0
 16 21  1  0  0  0  0
 17 18  1  0  0  0  0
 18 19  2  0  0  0  0
 19  5  1  0  0  0  0
 19 20  1  0  0  0  0
 20 21  2  0  0  0  0
 22  3  1  0  0  0  0
 23  3  1  0  0  0  0
 24  5  1  0  0  0  0
 25  5  1  0  0  0  0
M  END
>  <CHROM.1>
-168.37110996,-18.30254839,-118.92131262,159.55940098,-0.54369990,0.16006247
0.60247525,0.17824633,1.22181632,-1.17587234,2.05551076

>  <Name>
1q8n_lig

>  <RI>
0

>  <Rbt.Current_Directory>
/home/itssahil/PROJECTS/Mol_Feturizer/New_Systems/rnas/1q8n

>  <Rbt.Executable>
rbdock ($Id: //depot/dev/client3/rdock/2013.1/src/exe/rbdock.cxx#4 $)

>  <Rbt.Library>
libRbt.so (2013.1, Build901 2013/11/27)

>  <Rbt.Parameter_File>
/export/apps/rDock/src/rDock_2013.1_src/data/scripts/dock_solv.prm

>  <Rbt.Receptor>
prm/blind_docking_100.prm

>  <SCORE>
-50.6012

>  <SCORE.INTER>
-51.7996

>  <SCORE.INTER.CONST>
1

>  <SCORE.INTER.POLAR>
0

>  <SCORE.INTER.ROT>
5

>  <SCORE.INTER.SOLV>
11.3001

>  <SCORE.INTER.VDW>
-45.2331

>  <SCORE.INTER.norm>
-2.07198

>  <SCORE.INTRA>
1.19834

>  <SCORE.INTRA.DIHEDRAL>
1.55995

>  <SCORE.INTRA.DIHEDRAL.0>
2.1627

>  <SCORE.INTRA.POLAR>
0

>  <SCORE.INTRA.POLAR.0>
0

>  <SCORE.INTRA.REPUL>
0

>  <SCORE.INTRA.REPUL.0>
0

>  <SCORE.INTRA.SOLV>
0.0297788

>  <SCORE.INTRA.SOLV.lig_0>
-5.95779

>  <SCORE.INTRA.VDW>
0.40348

>  <SCORE.INTRA.VDW.0>
3.81702

>  <SCORE.INTRA.norm>
0.0479337

>  <SCORE.RESTR>
0

>  <SCORE.RESTR.CAVITY>
0

>  <SCORE.RESTR.norm>
0

>  <SCORE.SYSTEM>
0

>  <SCORE.SYSTEM.CONST>
0

>  <SCORE.SYSTEM.DIHEDRAL>
0

>  <SCORE.SYSTEM.SOLV>
0

>  <SCORE.SYSTEM.norm>
0

>  <SCORE.heavy>
25

>  <SCORE.norm>
-2.02405

>  <RMSD>
5.975

$$$$
1q8n_lig
 OpenBabel11021811413D
libRbt.so/2013.1/901 2013/11/27
 25 27  0  0  0  0  0  0  0  0999 V2000
   -0.1218    1.1863    0.9462 C   0  0  0  0  0  0  0  0  0  0  0  0
   -0.7897    2.0091    2.1881 C   0  0  0  0  0  0  0  0  0  0  0  0
    1.6581   -4.4092    1.9177 N   0  0  0  0  0  0  0  0  0  0  0  0
   -1.4510    3.1818    2.0382 C   0  0  0  0  0  0  0  0  0  0  0  0
    0.4341    3.4796   -4.5624 N   0  0  0  0  0  0  0  0  0  0  0  0
   -2.0377    3.8999    3.1932 C   0  0  0  0  0  0  0  0  0  0  0  0
   -1.9187    3.3814    4.4370 C   0  0  0  0  0  0  0  0  0  0  0  0
   -1.2233    2.1287    4.6183 C   0  0  0  0  0  0  0  0  0  0  0  0
   -0.6971    1.4917    3.5693 C   0  0  0  0  0  0  0  0  0  0  0  0
    0.3646   -0.3484    1.2073 C   0  0  0  0  0  0  0  0  0  0  0  0
    0.5696   -1.2012    0.1821 C   0  0  0  0  0  0  0  0  0  0  0  0
    1.0136   -2.6056    0.4018 C   0  0  0  0  0  0  0  0  0  0  0  0
    1.2286   -3.0659    1.6632 C   0  0  0  0  0  0  0  0  0  0  0  0
    1.0107   -2.1444    2.7942 C   0  0  0  0  0  0  0  0  0  0  0  0
    0.6092   -0.8839    2.5787 C   0  0  0  0  0  0  0  0  0  0  0  0
    0.0694    1.8712   -0.5515 C   0  0  0  0  0  0  0  0  0  0  0  0
   -0.3692    1.1200   -1.7784 C   0  0  0  0  0  0  0  0  0  0  0  0
   -0.2520    1.6187   -3.0120 C   0  0  0  0  0  0  0  0  0  0  0  0
    0.3231    2.9503   -3.2355 C   0  0  0  0  0  0  0  0  0  0  0  0
    0.7384    3.6642   -2.1685 C   0  0  0  0  0  0  0  0  0  0  0  0
    0.6102    3.1146   -0.7769 C   0  0  0  0  0  0  0  0  0  0  0  0
    1.5841   -5.4361    0.9234 C   0  0  0  0  0  0  0  0  0  0  0  0
    2.1840   -4.7653    3.1990 C   0  0  0  0  0  0  0  0  0  0  0  0
   -0.2613    2.8571   -5.6520 C   0  0  0  0  0  0  0  0  0  0  0  0
    1.2374    4.6491   -4.8389 C   0  0  0  0  0  0  0  0  0  0  0  0
  1  2  1  0  0  0  0
  1 10  1  0  0  0  0
  1 16  1  0  0  0  0
  2  4  2  0  0  0  0
  2  9  1  0  0  0  0
  4  6  1  0  0  0  0
  6  7  2  0  0  0  0
  7  8  1  0  0  0  0
  8  9  2  0  0  0  0
 10 11  2  0  0  0  0
 10 15  1  0  0  0  0
 11 12  1  0  0  0  0
 12 13  2  0  0  0  0
 13  3  1  0  0  0  0
 13 14  1  0  0  0  0
 14 15  2  0  0  0  0
 16 17  2  0  0  0  0
 16 21  1  0  0  0  0
 17 18  1  0  0  0  0
 18 19  2  0  0  0  0
 19  5  1  0  0  0  0
 19 20  1  0  0  0  0
 20 21  2  0  0  0  0
 22  3  1  0  0  0  0
 23  3  1  0  0  0  0
 24  5  1  0  0  0  0
 25  5  1  0  0  0  0
M  END
>  <CHROM.1>
-167.27510375,161.24684507,-131.76445815,-15.24874318,13.29145218,0.20936135
0.66937217,0.31500826,1.30069094,-1.18353836,2.15362290

>  <Name>
1q8n_lig

>  <RI>
0

>  <Rbt.Current_Directory>
/home/itssahil/PROJECTS/Mol_Feturizer/New_Systems/rnas/1q8n

>  <Rbt.Executable>
rbdock ($Id: //depot/dev/client3/rdock/2013.1/src/exe/rbdock.cxx#4 $)

>  <Rbt.Library>
libRbt.so (2013.1, Build901 2013/11/27)

>  <Rbt.Parameter_File>
/export/apps/rDock/src/rDock_2013.1_src/data/scripts/dock_solv.prm

>  <Rbt.Receptor>
prm/pocket_docking_7.prm

>  <SCORE>
-50.5874

>  <SCORE.INTER>
-51.7407

>  <SCORE.INTER.CONST>
1

>  <SCORE.INTER.POLAR>
0

>  <SCORE.INTER.ROT>
5

>  <SCORE.INTER.SOLV>
11.3042

>  <SCORE.INTER.VDW>
-45.1952

>  <SCORE.INTER.norm>
-2.06963

>  <SCORE.INTRA>
1.15335

>  <SCORE.INTRA.DIHEDRAL>
1.5582

>  <SCORE.INTRA.DIHEDRAL.0>
2.1627

>  <SCORE.INTRA.POLAR>
0

>  <SCORE.INTRA.POLAR.0>
0

>  <SCORE.INTRA.REPUL>
0

>  <SCORE.INTRA.REPUL.0>
0

>  <SCORE.INTRA.SOLV>
0.0414861

>  <SCORE.INTRA.SOLV.lig_0>
-5.95779

>  <SCORE.INTRA.VDW>
0.353507

>  <SCORE.INTRA.VDW.0>
3.81702

>  <SCORE.INTRA.norm>
0.0461341

>  <SCORE.RESTR>
0

>  <SCORE.RESTR.CAVITY>
0

>  <SCORE.RESTR.norm>
0

>  <SCORE.SYSTEM>
0

>  <SCORE.SYSTEM.CONST>
0

>  <SCORE.SYSTEM.DIHEDRAL>
0

>  <SCORE.SYSTEM.SOLV>
0

>  <SCORE.SYSTEM.norm>
0

>  <SCORE.heavy>
25

>  <SCORE.norm>
-2.0235

>  <RMSD>
5.999

$$$$
1q8n_lig
 OpenBabel11021811403D
libRbt.so/2013.1/901 2013/11/27
 25 27  0  0  0  0  0  0  0  0999 V2000
   -0.2496    1.0933    0.9017 C   0  0  0  0  0  0  0  0  0  0  0  0
   -0.8785    1.9759    2.1228 C   0  0  0  0  0  0  0  0  0  0  0  0
    1.6650   -4.4181    2.0762 N   0  0  0  0  0  0  0  0  0  0  0  0
   -1.5270    3.1509    1.9390 C   0  0  0  0  0  0  0  0  0  0  0  0
    0.3312    3.4195   -4.5905 N   0  0  0  0  0  0  0  0  0  0  0  0
   -2.0782    3.9240    3.0758 C   0  0  0  0  0  0  0  0  0  0  0  0
   -1.9388    3.4551    4.3371 C   0  0  0  0  0  0  0  0  0  0  0  0
   -1.2566    2.2009    4.5548 C   0  0  0  0  0  0  0  0  0  0  0  0
   -0.7624    1.5140    3.5218 C   0  0  0  0  0  0  0  0  0  0  0  0
    0.2765   -0.4155    1.2286 C   0  0  0  0  0  0  0  0  0  0  0  0
    0.5239   -0.8110    2.4946 C   0  0  0  0  0  0  0  0  0  0  0  0
    1.0046   -2.1844    2.8115 C   0  0  0  0  0  0  0  0  0  0  0  0
    1.2054   -3.0864    1.8138 C   0  0  0  0  0  0  0  0  0  0  0  0
    0.9370   -2.6691    0.4246 C   0  0  0  0  0  0  0  0  0  0  0  0
    0.5064   -1.4283    0.1569 C   0  0  0  0  0  0  0  0  0  0  0  0
   -0.1362    1.6932   -0.6397 C   0  0  0  0  0  0  0  0  0  0  0  0
    0.6552    2.9456   -0.8981 C   0  0  0  0  0  0  0  0  0  0  0  0
    0.7938    3.4751   -2.1166 C   0  0  0  0  0  0  0  0  0  0  0  0
    0.1669    2.8487   -3.2864 C   0  0  0  0  0  0  0  0  0  0  0  0
   -0.5597    1.7259   -3.1088 C   0  0  0  0  0  0  0  0  0  0  0  0
   -0.7211    1.1207   -1.7441 C   0  0  0  0  0  0  0  0  0  0  0  0
    1.5914   -5.4586    1.0962 C   0  0  0  0  0  0  0  0  0  0  0  0
    2.2220   -4.7483    3.3514 C   0  0  0  0  0  0  0  0  0  0  0  0
   -0.3274    2.8381   -5.7248 C   0  0  0  0  0  0  0  0  0  0  0  0
    1.1527    4.5905   -4.7989 C   0  0  0  0  0  0  0  0  0  0  0  0
  1  2  1  0  0  0  0
  1 10  1  0  0  0  0
  1 16  1  0  0  0  0
  2  4  2  0  0  0  0
  2  9  1  0  0  0  0
  4  6  1  0  0  0  0
  6  7  2  0  0  0  0
  7  8  1  0  0  0  0
  8  9  2  0  0  0  0
 10 11  2  0  0  0  0
 10 15  1  0  0  0  0
 11 12  1  0  0  0  0
 12 13  2  0  0  0  0
 13  3  1  0  0  0  0
 13 14  1  0  0  0  0
 14 15  2  0  0  0  0
 16 17  2  0  0  0  0
 16 21  1  0  0  0  0
 17 18  1  0  0  0  0
 18 19  2  0  0  0  0
 19  5  1  0  0  0  0
 19 20  1  0  0  0  0
 20 21  2  0  0  0  0
 22  3  1  0  0  0  0
 23  3  1  0  0  0  0
 24  5  1  0  0  0  0
 25  5  1  0  0  0  0
M  END
>  <CHROM.1>
-169.67782023,-17.32370883,58.96121854,165.44896426,-177.40450834,0.13462273
0.63079104,0.30614952,1.26049737,-1.17806813,2.11255118

>  <Name>
1q8n_lig

>  <RI>
0

>  <Rbt.Current_Directory>
/home/itssahil/PROJECTS/Mol_Feturizer/New_Systems/rnas/1q8n

>  <Rbt.Executable>
rbdock ($Id: //depot/dev/client3/rdock/2013.1/src/exe/rbdock.cxx#4 $)

>  <Rbt.Library>
libRbt.so (2013.1, Build901 2013/11/27)

>  <Rbt.Parameter_File>
/export/apps/rDock/src/rDock_2013.1_src/data/scripts/dock_solv.prm

>  <Rbt.Receptor>
prm/blind_docking_60.prm

>  <SCORE>
-50.7068

>  <SCORE.INTER>
-51.8977

>  <SCORE.INTER.CONST>
1

>  <SCORE.INTER.POLAR>
0

>  <SCORE.INTER.ROT>
5

>  <SCORE.INTER.SOLV>
11.4248

>  <SCORE.INTER.VDW>
-45.34

>  <SCORE.INTER.norm>
-2.07591

>  <SCORE.INTRA>
1.19082

>  <SCORE.INTRA.DIHEDRAL>
0.831736

>  <SCORE.INTRA.DIHEDRAL.0>
2.1627

>  <SCORE.INTRA.POLAR>
0

>  <SCORE.INTRA.POLAR.0>
0

>  <SCORE.INTRA.REPUL>
0

>  <SCORE.INTRA.REPUL.0>
0

>  <SCORE.INTRA.SOLV>
0.0282921

>  <SCORE.INTRA.SOLV.lig_0>
-5.95779

>  <SCORE.INTRA.VDW>
0.760808

>  <SCORE.INTRA.VDW.0>
3.81702

>  <SCORE.INTRA.norm>
0.0476329

>  <SCORE.RESTR>
0

>  <SCORE.RESTR.CAVITY>
0

>  <SCORE.RESTR.norm>
0

>  <SCORE.SYSTEM>
0

>  <SCORE.SYSTEM.CONST>
0

>  <SCORE.SYSTEM.DIHEDRAL>
0

>  <SCORE.SYSTEM.SOLV>
0

>  <SCORE.SYSTEM.norm>
0

>  <SCORE.heavy>
25

>  <SCORE.norm>
-2.02827

>  <RMSD>
6.001

$$$$
1q8n_lig
 OpenBabel11021811403D
libRbt.so/2013.1/901 2013/11/27
 25 27  0  0  0  0  0  0  0  0999 V2000
   -0.2016    1.1004    0.8536 C   0  0  0  0  0  0  0  0  0  0  0  0
   -0.8569    1.9588    2.0779 C   0  0  0  0  0  0  0  0  0  0  0  0
    1.6099   -4.4571    1.9734 N   0  0  0  0  0  0  0  0  0  0  0  0
   -1.5350    3.1178    1.8992 C   0  0  0  0  0  0  0  0  0  0  0  0
    0.2335    3.2637   -4.7181 N   0  0  0  0  0  0  0  0  0  0  0  0
   -2.1096    3.8694    3.0388 C   0  0  0  0  0  0  0  0  0  0  0  0
   -1.9621    3.3965    4.2976 C   0  0  0  0  0  0  0  0  0  0  0  0
   -1.2484    2.1591    4.5100 C   0  0  0  0  0  0  0  0  0  0  0  0
   -0.7333    1.4916    3.4745 C   0  0  0  0  0  0  0  0  0  0  0  0
    0.2933   -0.4241    1.1555 C   0  0  0  0  0  0  0  0  0  0  0  0
    0.4599   -1.3160    0.1569 C   0  0  0  0  0  0  0  0  0  0  0  0
    0.9110   -2.7118    0.4140 C   0  0  0  0  0  0  0  0  0  0  0  0
    1.1721   -3.1237    1.6834 C   0  0  0  0  0  0  0  0  0  0  0  0
    0.9966   -2.1590    2.7854 C   0  0  0  0  0  0  0  0  0  0  0  0
    0.5880   -0.9069    2.5365 C   0  0  0  0  0  0  0  0  0  0  0  0
   -0.0311    1.7397   -0.6666 C   0  0  0  0  0  0  0  0  0  0  0  0
   -0.7544    1.1128   -1.8265 C   0  0  0  0  0  0  0  0  0  0  0  0
   -0.6673    1.5843   -3.0733 C   0  0  0  0  0  0  0  0  0  0  0  0
    0.1560    2.7601   -3.3788 C   0  0  0  0  0  0  0  0  0  0  0  0
    0.8310    3.3572   -2.3747 C   0  0  0  0  0  0  0  0  0  0  0  0
    0.7396    2.8370   -0.9690 C   0  0  0  0  0  0  0  0  0  0  0  0
    1.5211   -5.5158    1.0143 C   0  0  0  0  0  0  0  0  0  0  0  0
    2.1597   -4.7703    3.2559 C   0  0  0  0  0  0  0  0  0  0  0  0
   -0.4558    2.5964   -5.7848 C   0  0  0  0  0  0  0  0  0  0  0  0
    0.9962    4.4513   -5.0302 C   0  0  0  0  0  0  0  0  0  0  0  0
  1  2  1  0  0  0  0
  1 10  1  0  0  0  0
  1 16  1  0  0  0  0
  2  4  2  0  0  0  0
  2  9  1  0  0  0  0
  4  6  1  0  0  0  0
  6  7  2  0  0  0  0
  7  8  1  0  0  0  0
  8  9  2  0  0  0  0
 10 11  2  0  0  0  0
 10 15  1  0  0  0  0
 11 12  1  0  0  0  0
 12 13  2  0  0  0  0
 13  3  1  0  0  0  0
 13 14  1  0  0  0  0
 14 15  2  0  0  0  0
 16 17  2  0  0  0  0
 16 21  1  0  0  0  0
 17 18  1  0  0  0  0
 18 19  2  0  0  0  0
 19  5  1  0  0  0  0
 19 20  1  0  0  0  0
 20 21  2  0  0  0  0
 22  3  1  0  0  0  0
 23  3  1  0  0  0  0
 24  5  1  0  0  0  0
 25  5  1  0  0  0  0
M  END
>  <CHROM.1>
-166.62513733,159.74643254,-117.70048557,-14.08915930,-2.18489854,0.11224731
0.57492414,0.23699331,1.25378005,-1.18691864,2.08206423

>  <Name>
1q8n_lig

>  <RI>
0

>  <Rbt.Current_Directory>
/home/itssahil/PROJECTS/Mol_Feturizer/New_Systems/rnas/1q8n

>  <Rbt.Executable>
rbdock ($Id: //depot/dev/client3/rdock/2013.1/src/exe/rbdock.cxx#4 $)

>  <Rbt.Library>
libRbt.so (2013.1, Build901 2013/11/27)

>  <Rbt.Parameter_File>
/export/apps/rDock/src/rDock_2013.1_src/data/scripts/dock_solv.prm

>  <Rbt.Receptor>
prm/blind_docking_100.prm

>  <SCORE>
-50.6516

>  <SCORE.INTER>
-51.4943

>  <SCORE.INTER.CONST>
1

>  <SCORE.INTER.POLAR>
0

>  <SCORE.INTER.ROT>
5

>  <SCORE.INTER.SOLV>
11.1913

>  <SCORE.INTER.VDW>
-44.9933

>  <SCORE.INTER.norm>
-2.05977

>  <SCORE.INTRA>
0.842712

>  <SCORE.INTRA.DIHEDRAL>
0.773337

>  <SCORE.INTRA.DIHEDRAL.0>
2.1627

>  <SCORE.INTRA.POLAR>
0

>  <SCORE.INTRA.POLAR.0>
0

>  <SCORE.INTRA.REPUL>
0

>  <SCORE.INTRA.REPUL.0>
0

>  <SCORE.INTRA.SOLV>
0.031045

>  <SCORE.INTRA.SOLV.lig_0>
-5.95779

>  <SCORE.INTRA.VDW>
0.440521

>  <SCORE.INTRA.VDW.0>
3.81702

>  <SCORE.INTRA.norm>
0.0337085

>  <SCORE.RESTR>
0

>  <SCORE.RESTR.CAVITY>
0

>  <SCORE.RESTR.norm>
0

>  <SCORE.SYSTEM>
0

>  <SCORE.SYSTEM.CONST>
0

>  <SCORE.SYSTEM.DIHEDRAL>
0

>  <SCORE.SYSTEM.SOLV>
0

>  <SCORE.SYSTEM.norm>
0

>  <SCORE.heavy>
25

>  <SCORE.norm>
-2.02606

>  <RMSD>
6.002

$$$$
1q8n_lig
 OpenBabel11021811403D
libRbt.so/2013.1/901 2013/11/27
 25 27  0  0  0  0  0  0  0  0999 V2000
   -0.1655    1.1596    0.9497 C   0  0  0  0  0  0  0  0  0  0  0  0
   -0.8298    2.0039    2.1790 C   0  0  0  0  0  0  0  0  0  0  0  0
    1.6649   -4.4067    1.9927 N   0  0  0  0  0  0  0  0  0  0  0  0
   -1.4961    3.1712    2.0099 C   0  0  0  0  0  0  0  0  0  0  0  0
    0.2912    3.3556   -4.6075 N   0  0  0  0  0  0  0  0  0  0  0  0
   -2.0794    3.9094    3.1539 C   0  0  0  0  0  0  0  0  0  0  0  0
   -1.9522    3.4155    4.4068 C   0  0  0  0  0  0  0  0  0  0  0  0
   -1.2514    2.1689    4.6087 C   0  0  0  0  0  0  0  0  0  0  0  0
   -0.7283    1.5136    3.5694 C   0  0  0  0  0  0  0  0  0  0  0  0
    0.3374   -0.3644    1.2406 C   0  0  0  0  0  0  0  0  0  0  0  0
    0.5516   -0.8021    2.4987 C   0  0  0  0  0  0  0  0  0  0  0  0
    1.0108   -2.1900    2.7830 C   0  0  0  0  0  0  0  0  0  0  0  0
    1.2251   -3.0624    1.7621 C   0  0  0  0  0  0  0  0  0  0  0  0
    0.9930   -2.5989    0.3811 C   0  0  0  0  0  0  0  0  0  0  0  0
    0.5815   -1.3457    0.1429 C   0  0  0  0  0  0  0  0  0  0  0  0
    0.0060    1.8124   -0.5646 C   0  0  0  0  0  0  0  0  0  0  0  0
   -0.6074    1.1206   -1.7507 C   0  0  0  0  0  0  0  0  0  0  0  0
   -0.5142    1.5985   -2.9946 C   0  0  0  0  0  0  0  0  0  0  0  0
    0.2068    2.8466   -3.2706 C   0  0  0  0  0  0  0  0  0  0  0  0
    0.7814    3.5042   -2.2421 C   0  0  0  0  0  0  0  0  0  0  0  0
    0.6819    2.9774   -0.8394 C   0  0  0  0  0  0  0  0  0  0  0  0
    1.5923   -5.4180    0.9825 C   0  0  0  0  0  0  0  0  0  0  0  0
    2.2001   -4.7797    3.2654 C   0  0  0  0  0  0  0  0  0  0  0  0
    1.0772    4.5218   -4.8912 C   0  0  0  0  0  0  0  0  0  0  0  0
   -0.4017    2.7117   -5.7006 C   0  0  0  0  0  0  0  0  0  0  0  0
  1  2  1  0  0  0  0
  1 10  1  0  0  0  0
  1 16  1  0  0  0  0
  2  4  2  0  0  0  0
  2  9  1  0  0  0  0
  4  6  1  0  0  0  0
  6  7  2  0  0  0  0
  7  8  1  0  0  0  0
  8  9  2  0  0  0  0
 10 11  2  0  0  0  0
 10 15  1  0  0  0  0
 11 12  1  0  0  0  0
 12 13  2  0  0  0  0
 13  3  1  0  0  0  0
 13 14  1  0  0  0  0
 14 15  2  0  0  0  0
 16 17  2  0  0  0  0
 16 21  1  0  0  0  0
 17 18  1  0  0  0  0
 18 19  2  0  0  0  0
 19  5  1  0  0  0  0
 19 20  1  0  0  0  0
 20 21  2  0  0  0  0
 22  3  1  0  0  0  0
 23  3  1  0  0  0  0
 24  5  1  0  0  0  0
 25  5  1  0  0  0  0
M  END
>  <CHROM.1>
-167.70330077,-18.05457714,-123.22016376,164.89022569,-175.44222828,0.15530489
0.63165026,0.30649347,1.25909598,-1.18260764,2.10102036

>  <Name>
1q8n_lig

>  <RI>
0

>  <Rbt.Current_Directory>
/home/itssahil/PROJECTS/Mol_Feturizer/New_Systems/rnas/1q8n

>  <Rbt.Executable>
rbdock ($Id: //depot/dev/client3/rdock/2013.1/src/exe/rbdock.cxx#4 $)

>  <Rbt.Library>
libRbt.so (2013.1, Build901 2013/11/27)

>  <Rbt.Parameter_File>
/export/apps/rDock/src/rDock_2013.1_src/data/scripts/dock_solv.prm

>  <Rbt.Receptor>
prm/blind_docking_60.prm

>  <SCORE>
-50.7283

>  <SCORE.INTER>
-51.9189

>  <SCORE.INTER.CONST>
1

>  <SCORE.INTER.POLAR>
0

>  <SCORE.INTER.ROT>
5

>  <SCORE.INTER.SOLV>
11.3343

>  <SCORE.INTER.VDW>
-45.324

>  <SCORE.INTER.norm>
-2.07676

>  <SCORE.INTRA>
1.19059

>  <SCORE.INTRA.DIHEDRAL>
0.948313

>  <SCORE.INTRA.DIHEDRAL.0>
2.1627

>  <SCORE.INTRA.POLAR>
0

>  <SCORE.INTRA.POLAR.0>
0

>  <SCORE.INTRA.REPUL>
0

>  <SCORE.INTRA.REPUL.0>
0

>  <SCORE.INTRA.SOLV>
0.0326453

>  <SCORE.INTRA.SOLV.lig_0>
-5.95779

>  <SCORE.INTRA.VDW>
0.700114

>  <SCORE.INTRA.VDW.0>
3.81702

>  <SCORE.INTRA.norm>
0.0476237

>  <SCORE.RESTR>
0

>  <SCORE.RESTR.CAVITY>
0

>  <SCORE.RESTR.norm>
0

>  <SCORE.SYSTEM>
0

>  <SCORE.SYSTEM.CONST>
0

>  <SCORE.SYSTEM.DIHEDRAL>
0

>  <SCORE.SYSTEM.SOLV>
0

>  <SCORE.SYSTEM.norm>
0

>  <SCORE.heavy>
25

>  <SCORE.norm>
-2.02913

>  <RMSD>
6.004

$$$$
1q8n_lig
 OpenBabel11021811403D
libRbt.so/2013.1/901 2013/11/27
 25 27  0  0  0  0  0  0  0  0999 V2000
    1.3211   -2.4532    1.6487 C   0  0  0  0  0  0  0  0  0  0  0  0
    1.7944   -3.1955    3.0237 C   0  0  0  0  0  0  0  0  0  0  0  0
    2.5207   -5.1168   -3.5366 N   0  0  0  0  0  0  0  0  0  0  0  0
    1.4363   -4.4600    3.3518 C   0  0  0  0  0  0  0  0  0  0  0  0
   -1.5132    2.8168    1.9751 N   0  0  0  0  0  0  0  0  0  0  0  0
    1.8832   -5.0950    4.6131 C   0  0  0  0  0  0  0  0  0  0  0  0
    2.6718   -4.4058    5.4692 C   0  0  0  0  0  0  0  0  0  0  0  0
    3.0709   -3.0584    5.1355 C   0  0  0  0  0  0  0  0  0  0  0  0
    2.6600   -2.4962    3.9962 C   0  0  0  0  0  0  0  0  0  0  0  0
    1.6498   -3.1783    0.2252 C   0  0  0  0  0  0  0  0  0  0  0  0
    2.0737   -2.4675   -0.8403 C   0  0  0  0  0  0  0  0  0  0  0  0
    2.3785   -3.1128   -2.1475 C   0  0  0  0  0  0  0  0  0  0  0  0
    2.2362   -4.4569   -2.2968 C   0  0  0  0  0  0  0  0  0  0  0  0
    1.7756   -5.2477   -1.1398 C   0  0  0  0  0  0  0  0  0  0  0  0
    1.5039   -4.6506    0.0291 C   0  0  0  0  0  0  0  0  0  0  0  0
    0.5264   -0.9984    1.6719 C   0  0  0  0  0  0  0  0  0  0  0  0
    0.1682   -0.3632    2.9871 C   0  0  0  0  0  0  0  0  0  0  0  0
   -0.4628    0.8109    3.0752 C   0  0  0  0  0  0  0  0  0  0  0  0
   -0.8462    1.5530    1.8686 C   0  0  0  0  0  0  0  0  0  0  0  0
   -0.5536    1.0243    0.6622 C   0  0  0  0  0  0  0  0  0  0  0  0
    0.1567   -0.2940    0.5509 C   0  0  0  0  0  0  0  0  0  0  0  0
    1.7059   -6.1802   -4.0405 C   0  0  0  0  0  0  0  0  0  0  0  0
    3.6500   -4.7204   -4.3194 C   0  0  0  0  0  0  0  0  0  0  0  0
   -1.7571    3.4019    3.2622 C   0  0  0  0  0  0  0  0  0  0  0  0
   -1.9504    3.5358    0.7998 C   0  0  0  0  0  0  0  0  0  0  0  0
  1  2  1  0  0  0  0
  1 10  1  0  0  0  0
  1 16  1  0  0  0  0
  2  4  2  0  0  0  0
  2  9  1  0  0  0  0
  4  6  1  0  0  0  0
  6  7  2  0  0  0  0
  7  8  1  0  0  0  0
  8  9  2  0  0  0  0
 10 11  2  0  0  0  0
 10 15  1  0  0  0  0
 11 12  1  0  0  0  0
 12 13  2  0  0  0  0
 13  3  1  0  0  0  0
 13 14  1  0  0  0  0
 14 15  2  0  0  0  0
 16 17  2  0  0  0  0
 16 21  1  0  0  0  0
 17 18  1  0  0  0  0
 18 19  2  0  0  0  0
 19  5  1  0  0  0  0
 19 20  1  0  0  0  0
 20 21  2  0  0  0  0
 22  3  1  0  0  0  0
 23  3  1  0  0  0  0
 24  5  1  0  0  0  0
 25  5  1  0  0  0  0
M  END
>  <CHROM.1>
-55.85058478,-138.93985985,-2.88911273,-140.05563344,2.98333369,1.10371848
-2.08007210,0.98064138,-0.64153999,-1.09055206,1.48365793

>  <Name>
1q8n_lig

>  <RI>
0

>  <Rbt.Current_Directory>
/home/itssahil/PROJECTS/Mol_Feturizer/New_Systems/rnas/1q8n

>  <Rbt.Executable>
rbdock ($Id: //depot/dev/client3/rdock/2013.1/src/exe/rbdock.cxx#4 $)

>  <Rbt.Library>
libRbt.so (2013.1, Build901 2013/11/27)

>  <Rbt.Parameter_File>
/export/apps/rDock/src/rDock_2013.1_src/data/scripts/dock_solv.prm

>  <Rbt.Receptor>
prm/blind_docking_80.prm

>  <SCORE>
-41.4263

>  <SCORE.INTER>
-42.526

>  <SCORE.INTER.CONST>
1

>  <SCORE.INTER.POLAR>
0

>  <SCORE.INTER.ROT>
5

>  <SCORE.INTER.SOLV>
9.00431

>  <SCORE.INTER.VDW>
-38.2854

>  <SCORE.INTER.norm>
-1.70104

>  <SCORE.INTRA>
1.0557

>  <SCORE.INTRA.DIHEDRAL>
5.31026

>  <SCORE.INTRA.DIHEDRAL.0>
2.1627

>  <SCORE.INTRA.POLAR>
0

>  <SCORE.INTRA.POLAR.0>
0

>  <SCORE.INTRA.REPUL>
0

>  <SCORE.INTRA.REPUL.0>
0

>  <SCORE.INTRA.SOLV>
0.00860068

>  <SCORE.INTRA.SOLV.lig_0>
-5.95779

>  <SCORE.INTRA.VDW>
-1.60373

>  <SCORE.INTRA.VDW.0>
3.81702

>  <SCORE.INTRA.norm>
0.042228

>  <SCORE.RESTR>
0.0440033

>  <SCORE.RESTR.CAVITY>
0.0440033

>  <SCORE.RESTR.norm>
0.00176013

>  <SCORE.SYSTEM>
0

>  <SCORE.SYSTEM.CONST>
0

>  <SCORE.SYSTEM.DIHEDRAL>
0

>  <SCORE.SYSTEM.SOLV>
0

>  <SCORE.SYSTEM.norm>
0

>  <SCORE.heavy>
25

>  <SCORE.norm>
-1.65705

>  <RMSD>
6.010

$$$$
1q8n_lig
 OpenBabel11021811403D
libRbt.so/2013.1/901 2013/11/27
 25 27  0  0  0  0  0  0  0  0999 V2000
   -0.2386    1.0602    0.9284 C   0  0  0  0  0  0  0  0  0  0  0  0
   -0.8656    1.9429    2.1504 C   0  0  0  0  0  0  0  0  0  0  0  0
    1.6427   -4.4578    2.1258 N   0  0  0  0  0  0  0  0  0  0  0  0
   -1.5203    3.1144    1.9669 C   0  0  0  0  0  0  0  0  0  0  0  0
    0.3667    3.4128   -4.5499 N   0  0  0  0  0  0  0  0  0  0  0  0
   -2.0694    3.8879    3.1045 C   0  0  0  0  0  0  0  0  0  0  0  0
   -1.9216    3.4228    4.3662 C   0  0  0  0  0  0  0  0  0  0  0  0
   -1.2327    2.1723    4.5837 C   0  0  0  0  0  0  0  0  0  0  0  0
   -0.7405    1.4851    3.5500 C   0  0  0  0  0  0  0  0  0  0  0  0
    0.2752   -0.4536    1.2517 C   0  0  0  0  0  0  0  0  0  0  0  0
    0.4197   -1.3677    0.2699 C   0  0  0  0  0  0  0  0  0  0  0  0
    0.8876   -2.7542    0.5466 C   0  0  0  0  0  0  0  0  0  0  0  0
    1.1875   -3.1345    1.8173 C   0  0  0  0  0  0  0  0  0  0  0  0
    1.0365   -2.1451    2.9010 C   0  0  0  0  0  0  0  0  0  0  0  0
    0.6123   -0.9019    2.6346 C   0  0  0  0  0  0  0  0  0  0  0  0
   -0.1153    1.6647   -0.6105 C   0  0  0  0  0  0  0  0  0  0  0  0
    0.6113    2.9597   -0.8487 C   0  0  0  0  0  0  0  0  0  0  0  0
    0.7545    3.4956   -2.0639 C   0  0  0  0  0  0  0  0  0  0  0  0
    0.1977    2.8343   -3.2499 C   0  0  0  0  0  0  0  0  0  0  0  0
   -0.4693    1.6722   -3.0907 C   0  0  0  0  0  0  0  0  0  0  0  0
   -0.6352    1.0596   -1.7298 C   0  0  0  0  0  0  0  0  0  0  0  0
    2.2724   -4.7782    3.3705 C   0  0  0  0  0  0  0  0  0  0  0  0
    1.4746   -5.5152    1.1776 C   0  0  0  0  0  0  0  0  0  0  0  0
    1.2055    4.5629   -4.7284 C   0  0  0  0  0  0  0  0  0  0  0  0
   -0.2920    2.8563   -5.7101 C   0  0  0  0  0  0  0  0  0  0  0  0
  1  2  1  0  0  0  0
  1 10  1  0  0  0  0
  1 16  1  0  0  0  0
  2  4  2  0  0  0  0
  2  9  1  0  0  0  0
  4  6  1  0  0  0  0
  6  7  2  0  0  0  0
  7  8  1  0  0  0  0
  8  9  2  0  0  0  0
 10 11  2  0  0  0  0
 10 15  1  0  0  0  0
 11 12  1  0  0  0  0
 12 13  2  0  0  0  0
 13  3  1  0  0  0  0
 13 14  1  0  0  0  0
 14 15  2  0  0  0  0
 16 17  2  0  0  0  0
 16 21  1  0  0  0  0
 17 18  1  0  0  0  0
 18 19  2  0  0  0  0
 19  5  1  0  0  0  0
 19 20  1  0  0  0  0
 20 21  2  0  0  0  0
 22  3  1  0  0  0  0
 23  3  1  0  0  0  0
 24  5  1  0  0  0  0
 25  5  1  0  0  0  0
M  END
>  <CHROM.1>
-168.77009509,159.72396393,55.02687149,164.01652448,6.93768383,0.14439681
0.60471024,0.35305427,1.27170273,-1.18302141,2.12221536

>  <Name>
1q8n_lig

>  <RI>
0

>  <Rbt.Current_Directory>
/home/itssahil/PROJECTS/Mol_Feturizer/New_Systems/rnas/1q8n

>  <Rbt.Executable>
rbdock ($Id: //depot/dev/client3/rdock/2013.1/src/exe/rbdock.cxx#4 $)

>  <Rbt.Library>
libRbt.so (2013.1, Build901 2013/11/27)

>  <Rbt.Parameter_File>
/export/apps/rDock/src/rDock_2013.1_src/data/scripts/dock_solv.prm

>  <Rbt.Receptor>
prm/blind_docking_100.prm

>  <SCORE>
-50.6417

>  <SCORE.INTER>
-51.6192

>  <SCORE.INTER.CONST>
1

>  <SCORE.INTER.POLAR>
0

>  <SCORE.INTER.ROT>
5

>  <SCORE.INTER.SOLV>
11.3249

>  <SCORE.INTER.VDW>
-45.1211

>  <SCORE.INTER.norm>
-2.06477

>  <SCORE.INTRA>
0.977552

>  <SCORE.INTRA.DIHEDRAL>
1.15259

>  <SCORE.INTRA.DIHEDRAL.0>
2.1627

>  <SCORE.INTRA.POLAR>
0

>  <SCORE.INTRA.POLAR.0>
0

>  <SCORE.INTRA.REPUL>
0

>  <SCORE.INTRA.REPUL.0>
0

>  <SCORE.INTRA.SOLV>
0.0330054

>  <SCORE.INTRA.SOLV.lig_0>
-5.95779

>  <SCORE.INTRA.VDW>
0.384755

>  <SCORE.INTRA.VDW.0>
3.81702

>  <SCORE.INTRA.norm>
0.0391021

>  <SCORE.RESTR>
0

>  <SCORE.RESTR.CAVITY>
0

>  <SCORE.RESTR.norm>
0

>  <SCORE.SYSTEM>
0

>  <SCORE.SYSTEM.CONST>
0

>  <SCORE.SYSTEM.DIHEDRAL>
0

>  <SCORE.SYSTEM.SOLV>
0

>  <SCORE.SYSTEM.norm>
0

>  <SCORE.heavy>
25

>  <SCORE.norm>
-2.02567

>  <RMSD>
6.018

$$$$
1q8n_lig
 OpenBabel11021811403D
libRbt.so/2013.1/901 2013/11/27
 25 27  0  0  0  0  0  0  0  0999 V2000
   -0.2842    1.1289    0.9114 C   0  0  0  0  0  0  0  0  0  0  0  0
   -0.9121    2.0190    2.1275 C   0  0  0  0  0  0  0  0  0  0  0  0
    1.5519   -4.3989    2.1335 N   0  0  0  0  0  0  0  0  0  0  0  0
   -1.5571    3.1949    1.9373 C   0  0  0  0  0  0  0  0  0  0  0  0
    0.3734    3.4597   -4.5702 N   0  0  0  0  0  0  0  0  0  0  0  0
   -2.1074    3.9750    3.0698 C   0  0  0  0  0  0  0  0  0  0  0  0
   -1.9708    3.5118    4.3334 C   0  0  0  0  0  0  0  0  0  0  0  0
   -1.2924    2.2567    4.5580 C   0  0  0  0  0  0  0  0  0  0  0  0
   -0.7989    1.5635    3.5288 C   0  0  0  0  0  0  0  0  0  0  0  0
    0.2173   -0.3876    1.2414 C   0  0  0  0  0  0  0  0  0  0  0  0
    0.3541   -1.3073    0.2637 C   0  0  0  0  0  0  0  0  0  0  0  0
    0.8107   -2.6963    0.5466 C   0  0  0  0  0  0  0  0  0  0  0  0
    1.1075   -3.0733    1.8191 C   0  0  0  0  0  0  0  0  0  0  0  0
    0.9648   -2.0779    2.8983 C   0  0  0  0  0  0  0  0  0  0  0  0
    0.5508   -0.8324    2.6264 C   0  0  0  0  0  0  0  0  0  0  0  0
   -0.1477    1.7286   -0.6282 C   0  0  0  0  0  0  0  0  0  0  0  0
    0.6145    3.0024   -0.8693 C   0  0  0  0  0  0  0  0  0  0  0  0
    0.7696    3.5332   -2.0853 C   0  0  0  0  0  0  0  0  0  0  0  0
    0.1914    2.8871   -3.2693 C   0  0  0  0  0  0  0  0  0  0  0  0
   -0.5076    1.7445   -3.1076 C   0  0  0  0  0  0  0  0  0  0  0  0
   -0.6874    1.1377   -1.7458 C   0  0  0  0  0  0  0  0  0  0  0  0
    2.1290   -4.7307    3.4005 C   0  0  0  0  0  0  0  0  0  0  0  0
    1.4263   -5.4470    1.1686 C   0  0  0  0  0  0  0  0  0  0  0  0
   -0.2812    2.8885   -5.7120 C   0  0  0  0  0  0  0  0  0  0  0  0
    1.2091    4.6225   -4.7679 C   0  0  0  0  0  0  0  0  0  0  0  0
  1  2  1  0  0  0  0
  1 10  1  0  0  0  0
  1 16  1  0  0  0  0
  2  4  2  0  0  0  0
  2  9  1  0  0  0  0
  4  6  1  0  0  0  0
  6  7  2  0  0  0  0
  7  8  1  0  0  0  0
  8  9  2  0  0  0  0
 10 11  2  0  0  0  0
 10 15  1  0  0  0  0
 11 12  1  0  0  0  0
 12 13  2  0  0  0  0
 13  3  1  0  0  0  0
 13 14  1  0  0  0  0
 14 15  2  0  0  0  0
 16 17  2  0  0  0  0
 16 21  1  0  0  0  0
 17 18  1  0  0  0  0
 18 19  2  0  0  0  0
 19  5  1  0  0  0  0
 19 20  1  0  0  0  0
 20 21  2  0  0  0  0
 22  3  1  0  0  0  0
 23  3  1  0  0  0  0
 24  5  1  0  0  0  0
 25  5  1  0  0  0  0
M  END
>  <CHROM.1>
-168.80195478,159.36069578,56.34151283,166.64672533,-174.95374312,0.09960325
0.66863179,0.33912680,1.29607924,-1.18535029,2.14167335

>  <Name>
1q8n_lig

>  <RI>
0

>  <Rbt.Current_Directory>
/home/itssahil/PROJECTS/Mol_Feturizer/New_Systems/rnas/1q8n

>  <Rbt.Executable>
rbdock ($Id: //depot/dev/client3/rdock/2013.1/src/exe/rbdock.cxx#4 $)

>  <Rbt.Library>
libRbt.so (2013.1, Build901 2013/11/27)

>  <Rbt.Parameter_File>
/export/apps/rDock/src/rDock_2013.1_src/data/scripts/dock_solv.prm

>  <Rbt.Receptor>
prm/blind_docking_40.prm

>  <SCORE>
-50.6565

>  <SCORE.INTER>
-51.6026

>  <SCORE.INTER.CONST>
1

>  <SCORE.INTER.POLAR>
0

>  <SCORE.INTER.ROT>
5

>  <SCORE.INTER.SOLV>
11.439

>  <SCORE.INTER.VDW>
-45.1481

>  <SCORE.INTER.norm>
-2.0641

>  <SCORE.INTRA>
0.946151

>  <SCORE.INTRA.DIHEDRAL>
0.77738

>  <SCORE.INTRA.DIHEDRAL.0>
2.1627

>  <SCORE.INTRA.POLAR>
0

>  <SCORE.INTRA.POLAR.0>
0

>  <SCORE.INTRA.REPUL>
0

>  <SCORE.INTRA.REPUL.0>
0

>  <SCORE.INTRA.SOLV>
0.031834

>  <SCORE.INTRA.SOLV.lig_0>
-5.95779

>  <SCORE.INTRA.VDW>
0.541545

>  <SCORE.INTRA.VDW.0>
3.81702

>  <SCORE.INTRA.norm>
0.0378461

>  <SCORE.RESTR>
0

>  <SCORE.RESTR.CAVITY>
0

>  <SCORE.RESTR.norm>
0

>  <SCORE.SYSTEM>
0

>  <SCORE.SYSTEM.CONST>
0

>  <SCORE.SYSTEM.DIHEDRAL>
0

>  <SCORE.SYSTEM.SOLV>
0

>  <SCORE.SYSTEM.norm>
0

>  <SCORE.heavy>
25

>  <SCORE.norm>
-2.02626

>  <RMSD>
6.024

$$$$
1q8n_lig
 OpenBabel11021811413D
libRbt.so/2013.1/901 2013/11/27
 25 27  0  0  0  0  0  0  0  0999 V2000
   -0.1995    1.1940    0.9719 C   0  0  0  0  0  0  0  0  0  0  0  0
   -0.8689    2.0505    2.1901 C   0  0  0  0  0  0  0  0  0  0  0  0
    1.5920   -4.3746    2.0691 N   0  0  0  0  0  0  0  0  0  0  0  0
   -1.5251    3.2214    2.0080 C   0  0  0  0  0  0  0  0  0  0  0  0
    0.3081    3.3510   -4.5960 N   0  0  0  0  0  0  0  0  0  0  0  0
   -2.1134    3.9707    3.1422 C   0  0  0  0  0  0  0  0  0  0  0  0
   -2.0012    3.4835    4.3991 C   0  0  0  0  0  0  0  0  0  0  0  0
   -1.3113    2.2331    4.6148 C   0  0  0  0  0  0  0  0  0  0  0  0
   -0.7835    1.5678    3.5843 C   0  0  0  0  0  0  0  0  0  0  0  0
    0.2932   -0.3305    1.2775 C   0  0  0  0  0  0  0  0  0  0  0  0
    0.5941   -0.7304    2.5305 C   0  0  0  0  0  0  0  0  0  0  0  0
    1.0454   -2.1181    2.8279 C   0  0  0  0  0  0  0  0  0  0  0  0
    1.1632   -3.0291    1.8252 C   0  0  0  0  0  0  0  0  0  0  0  0
    0.8355   -2.6071    0.4502 C   0  0  0  0  0  0  0  0  0  0  0  0
    0.4325   -1.3535    0.1998 C   0  0  0  0  0  0  0  0  0  0  0  0
   -0.0129    1.8351   -0.5455 C   0  0  0  0  0  0  0  0  0  0  0  0
   -0.6410    1.1511   -1.7284 C   0  0  0  0  0  0  0  0  0  0  0  0
   -0.5367    1.6205   -2.9746 C   0  0  0  0  0  0  0  0  0  0  0  0
    0.2119    2.8508   -3.2567 C   0  0  0  0  0  0  0  0  0  0  0  0
    0.8005    3.5007   -2.2311 C   0  0  0  0  0  0  0  0  0  0  0  0
    0.6888    2.9834   -0.8259 C   0  0  0  0  0  0  0  0  0  0  0  0
    1.4843   -5.4020    1.0784 C   0  0  0  0  0  0  0  0  0  0  0  0
    2.1515   -4.7324    3.3356 C   0  0  0  0  0  0  0  0  0  0  0  0
   -0.3650    2.6800   -5.6708 C   0  0  0  0  0  0  0  0  0  0  0  0
    1.0740    4.5386   -4.9002 C   0  0  0  0  0  0  0  0  0  0  0  0
  1  2  1  0  0  0  0
  1 10  1  0  0  0  0
  1 16  1  0  0  0  0
  2  4  2  0  0  0  0
  2  9  1  0  0  0  0
  4  6  1  0  0  0  0
  6  7  2  0  0  0  0
  7  8  1  0  0  0  0
  8  9  2  0  0  0  0
 10 11  2  0  0  0  0
 10 15  1  0  0  0  0
 11 12  1  0  0  0  0
 12 13  2  0  0  0  0
 13  3  1  0  0  0  0
 13 14  1  0  0  0  0
 14 15  2  0  0  0  0
 16 17  2  0  0  0  0
 16 21  1  0  0  0  0
 17 18  1  0  0  0  0
 18 19  2  0  0  0  0
 19  5  1  0  0  0  0
 19 20  1  0  0  0  0
 20 21  2  0  0  0  0
 22  3  1  0  0  0  0
 23  3  1  0  0  0  0
 24  5  1  0  0  0  0
 25  5  1  0  0  0  0
M  END
>  <CHROM.1>
-167.85490861,-23.20439199,-122.15640197,168.16369594,2.15671069,0.12104680
0.66040296,0.33543389,1.27757976,-1.18592364,2.11217867

>  <Name>
1q8n_lig

>  <RI>
0

>  <Rbt.Current_Directory>
/home/itssahil/PROJECTS/Mol_Feturizer/New_Systems/rnas/1q8n

>  <Rbt.Executable>
rbdock ($Id: //depot/dev/client3/rdock/2013.1/src/exe/rbdock.cxx#4 $)

>  <Rbt.Library>
libRbt.so (2013.1, Build901 2013/11/27)

>  <Rbt.Parameter_File>
/export/apps/rDock/src/rDock_2013.1_src/data/scripts/dock_solv.prm

>  <Rbt.Receptor>
prm/pocket_docking_8.prm

>  <SCORE>
-50.6366

>  <SCORE.INTER>
-51.5694

>  <SCORE.INTER.CONST>
1

>  <SCORE.INTER.POLAR>
0

>  <SCORE.INTER.ROT>
5

>  <SCORE.INTER.SOLV>
11.3736

>  <SCORE.INTER.VDW>
-45.1041

>  <SCORE.INTER.norm>
-2.06277

>  <SCORE.INTRA>
0.932734

>  <SCORE.INTRA.DIHEDRAL>
0.5547

>  <SCORE.INTRA.DIHEDRAL.0>
2.1627

>  <SCORE.INTRA.POLAR>
0

>  <SCORE.INTRA.POLAR.0>
0

>  <SCORE.INTRA.REPUL>
0

>  <SCORE.INTRA.REPUL.0>
0

>  <SCORE.INTRA.SOLV>
0.0296617

>  <SCORE.INTRA.SOLV.lig_0>
-5.95779

>  <SCORE.INTRA.VDW>
0.640554

>  <SCORE.INTRA.VDW.0>
3.81702

>  <SCORE.INTRA.norm>
0.0373094

>  <SCORE.RESTR>
0

>  <SCORE.RESTR.CAVITY>
0

>  <SCORE.RESTR.norm>
0

>  <SCORE.SYSTEM>
0

>  <SCORE.SYSTEM.CONST>
0

>  <SCORE.SYSTEM.DIHEDRAL>
0

>  <SCORE.SYSTEM.SOLV>
0

>  <SCORE.SYSTEM.norm>
0

>  <SCORE.heavy>
25

>  <SCORE.norm>
-2.02547

>  <RMSD>
6.027

$$$$
1q8n_lig
 OpenBabel11021811403D
libRbt.so/2013.1/901 2013/11/27
 25 27  0  0  0  0  0  0  0  0999 V2000
    1.4352   -2.7176    1.2845 C   0  0  0  0  0  0  0  0  0  0  0  0
    1.8482   -3.5438    2.6307 C   0  0  0  0  0  0  0  0  0  0  0  0
    2.7212   -5.1364   -3.9993 N   0  0  0  0  0  0  0  0  0  0  0  0
    3.1267   -3.6962    3.0515 C   0  0  0  0  0  0  0  0  0  0  0  0
   -1.2555    2.6114    1.8079 N   0  0  0  0  0  0  0  0  0  0  0  0
    3.4592   -4.4591    4.2768 C   0  0  0  0  0  0  0  0  0  0  0  0
    2.4691   -5.0229    5.0060 C   0  0  0  0  0  0  0  0  0  0  0  0
    1.0983   -4.8668    4.5790 C   0  0  0  0  0  0  0  0  0  0  0  0
    0.8115   -4.1783    3.4714 C   0  0  0  0  0  0  0  0  0  0  0  0
    1.7876   -3.3756   -0.1658 C   0  0  0  0  0  0  0  0  0  0  0  0
    2.2353   -2.6169   -1.1877 C   0  0  0  0  0  0  0  0  0  0  0  0
    2.5620   -3.2004   -2.5184 C   0  0  0  0  0  0  0  0  0  0  0  0
    2.4161   -4.5350   -2.7348 C   0  0  0  0  0  0  0  0  0  0  0  0
    1.9296   -5.3777   -1.6260 C   0  0  0  0  0  0  0  0  0  0  0  0
    1.6384   -4.8358   -0.4352 C   0  0  0  0  0  0  0  0  0  0  0  0
    0.6775   -1.2451    1.3626 C   0  0  0  0  0  0  0  0  0  0  0  0
    0.3866   -0.6243    2.7011 C   0  0  0  0  0  0  0  0  0  0  0  0
   -0.2118    0.5627    2.8330 C   0  0  0  0  0  0  0  0  0  0  0  0
   -0.6241    1.3343    1.6547 C   0  0  0  0  0  0  0  0  0  0  0  0
   -0.3918    0.8195    0.4293 C   0  0  0  0  0  0  0  0  0  0  0  0
    0.2814   -0.5131    0.2686 C   0  0  0  0  0  0  0  0  0  0  0  0
    3.9861   -4.9578   -4.6446 C   0  0  0  0  0  0  0  0  0  0  0  0
    1.7487   -5.9487   -4.6623 C   0  0  0  0  0  0  0  0  0  0  0  0
   -1.6292    3.0841    3.1100 C   0  0  0  0  0  0  0  0  0  0  0  0
   -1.5266    3.4561    0.6667 C   0  0  0  0  0  0  0  0  0  0  0  0
  1  2  1  0  0  0  0
  1 10  1  0  0  0  0
  1 16  1  0  0  0  0
  2  4  2  0  0  0  0
  2  9  1  0  0  0  0
  4  6  1  0  0  0  0
  6  7  2  0  0  0  0
  7  8  1  0  0  0  0
  8  9  2  0  0  0  0
 10 11  2  0  0  0  0
 10 15  1  0  0  0  0
 11 12  1  0  0  0  0
 12 13  2  0  0  0  0
 13  3  1  0  0  0  0
 13 14  1  0  0  0  0
 14 15  2  0  0  0  0
 16 17  2  0  0  0  0
 16 21  1  0  0  0  0
 17 18  1  0  0  0  0
 18 19  2  0  0  0  0
 19  5  1  0  0  0  0
 19 20  1  0  0  0  0
 20 21  2  0  0  0  0
 22  3  1  0  0  0  0
 23  3  1  0  0  0  0
 24  5  1  0  0  0  0
 25  5  1  0  0  0  0
M  END
>  <CHROM.1>
71.33027380,-140.30733698,1.55795305,53.37381115,-7.06942737,1.22192363,-2.32315556
0.62733442,-0.52484628,-1.11760708,1.64807402

>  <Name>
1q8n_lig

>  <RI>
0

>  <Rbt.Current_Directory>
/home/itssahil/PROJECTS/Mol_Feturizer/New_Systems/rnas/1q8n

>  <Rbt.Executable>
rbdock ($Id: //depot/dev/client3/rdock/2013.1/src/exe/rbdock.cxx#4 $)

>  <Rbt.Library>
libRbt.so (2013.1, Build901 2013/11/27)

>  <Rbt.Parameter_File>
/export/apps/rDock/src/rDock_2013.1_src/data/scripts/dock_solv.prm

>  <Rbt.Receptor>
prm/blind_docking_40.prm

>  <SCORE>
-45.3075

>  <SCORE.INTER>
-47.0938

>  <SCORE.INTER.CONST>
1

>  <SCORE.INTER.POLAR>
0

>  <SCORE.INTER.ROT>
5

>  <SCORE.INTER.SOLV>
9.71406

>  <SCORE.INTER.VDW>
-41.5672

>  <SCORE.INTER.norm>
-1.88375

>  <SCORE.INTRA>
1.78624

>  <SCORE.INTRA.DIHEDRAL>
8.43762

>  <SCORE.INTRA.DIHEDRAL.0>
2.1627

>  <SCORE.INTRA.POLAR>
0

>  <SCORE.INTRA.POLAR.0>
0

>  <SCORE.INTRA.REPUL>
0

>  <SCORE.INTRA.REPUL.0>
0

>  <SCORE.INTRA.SOLV>
-0.00493712

>  <SCORE.INTRA.SOLV.lig_0>
-5.95779

>  <SCORE.INTRA.VDW>
-2.4301

>  <SCORE.INTRA.VDW.0>
3.81702

>  <SCORE.INTRA.norm>
0.0714497

>  <SCORE.RESTR>
0

>  <SCORE.RESTR.CAVITY>
0

>  <SCORE.RESTR.norm>
0

>  <SCORE.SYSTEM>
0

>  <SCORE.SYSTEM.CONST>
0

>  <SCORE.SYSTEM.DIHEDRAL>
0

>  <SCORE.SYSTEM.SOLV>
0

>  <SCORE.SYSTEM.norm>
0

>  <SCORE.heavy>
25

>  <SCORE.norm>
-1.8123

>  <RMSD>
6.045

$$$$
1q8n_lig
 OpenBabel11021811403D
libRbt.so/2013.1/901 2013/11/27
 25 27  0  0  0  0  0  0  0  0999 V2000
    1.3266   -2.6846    1.3808 C   0  0  0  0  0  0  0  0  0  0  0  0
    1.5507   -3.5372    2.7550 C   0  0  0  0  0  0  0  0  0  0  0  0
   -1.0295    2.7667    1.7729 N   0  0  0  0  0  0  0  0  0  0  0  0
    2.6928   -4.2069    3.0413 C   0  0  0  0  0  0  0  0  0  0  0  0
    2.7195   -5.1216   -3.9139 N   0  0  0  0  0  0  0  0  0  0  0  0
    2.8534   -4.9740    4.2982 C   0  0  0  0  0  0  0  0  0  0  0  0
    1.8407   -5.0143    5.1942 C   0  0  0  0  0  0  0  0  0  0  0  0
    0.6167   -4.3017    4.9118 C   0  0  0  0  0  0  0  0  0  0  0  0
    0.4834   -3.6152    3.7742 C   0  0  0  0  0  0  0  0  0  0  0  0
    0.6792   -1.1918    1.4933 C   0  0  0  0  0  0  0  0  0  0  0  0
    0.3064   -0.6791    2.6843 C   0  0  0  0  0  0  0  0  0  0  0  0
   -0.2863    0.6817    2.8058 C   0  0  0  0  0  0  0  0  0  0  0  0
   -0.4649    1.4516    1.6991 C   0  0  0  0  0  0  0  0  0  0  0  0
   -0.0600    0.9053    0.3901 C   0  0  0  0  0  0  0  0  0  0  0  0
    0.4702   -0.3223    0.2985 C   0  0  0  0  0  0  0  0  0  0  0  0
    1.7369   -3.2986   -0.1035 C   0  0  0  0  0  0  0  0  0  0  0  0
    1.6507   -4.7797   -0.3495 C   0  0  0  0  0  0  0  0  0  0  0  0
    1.9573   -5.3367   -1.5243 C   0  0  0  0  0  0  0  0  0  0  0  0
    2.4035   -4.5144   -2.6549 C   0  0  0  0  0  0  0  0  0  0  0  0
    2.5042   -3.1796   -2.4856 C   0  0  0  0  0  0  0  0  0  0  0  0
    2.1607   -2.5421   -1.1701 C   0  0  0  0  0  0  0  0  0  0  0  0
   -1.7158    3.2391    2.9367 C   0  0  0  0  0  0  0  0  0  0  0  0
   -0.9183    3.6602    0.6618 C   0  0  0  0  0  0  0  0  0  0  0  0
    1.7610   -5.9591   -4.5759 C   0  0  0  0  0  0  0  0  0  0  0  0
    3.9988   -4.9054   -4.5510 C   0  0  0  0  0  0  0  0  0  0  0  0
  1  2  1  0  0  0  0
  1 10  1  0  0  0  0
  1 16  1  0  0  0  0
  2  4  2  0  0  0  0
  2  9  1  0  0  0  0
  4  6  1  0  0  0  0
  6  7  2  0  0  0  0
  7  8  1  0  0  0  0
  8  9  2  0  0  0  0
 10 11  2  0  0  0  0
 10 15  1  0  0  0  0
 11 12  1  0  0  0  0
 12 13  2  0  0  0  0
 13  3  1  0  0  0  0
 13 14  1  0  0  0  0
 14 15  2  0  0  0  0
 16 17  2  0  0  0  0
 16 21  1  0  0  0  0
 17 18  1  0  0  0  0
 18 19  2  0  0  0  0
 19  5  1  0  0  0  0
 19 20  1  0  0  0  0
 20 21  2  0  0  0  0
 22  3  1  0  0  0  0
 23  3  1  0  0  0  0
 24  5  1  0  0  0  0
 25  5  1  0  0  0  0
M  END
>  <CHROM.1>
-134.08854293,-1.53678724,31.33508851,-14.57825038,54.62800362,1.15792295
-2.26102496,0.68956134,-2.79137980,1.17451919,-1.29187773

>  <Name>
1q8n_lig

>  <RI>
0

>  <Rbt.Current_Directory>
/home/itssahil/PROJECTS/Mol_Feturizer/New_Systems/rnas/1q8n

>  <Rbt.Executable>
rbdock ($Id: //depot/dev/client3/rdock/2013.1/src/exe/rbdock.cxx#4 $)

>  <Rbt.Library>
libRbt.so (2013.1, Build901 2013/11/27)

>  <Rbt.Parameter_File>
/export/apps/rDock/src/rDock_2013.1_src/data/scripts/dock_solv.prm

>  <Rbt.Receptor>
prm/blind_docking_40.prm

>  <SCORE>
-44.8632

>  <SCORE.INTER>
-47.0542

>  <SCORE.INTER.CONST>
1

>  <SCORE.INTER.POLAR>
0

>  <SCORE.INTER.ROT>
5

>  <SCORE.INTER.SOLV>
9.36705

>  <SCORE.INTER.VDW>
-41.4251

>  <SCORE.INTER.norm>
-1.88217

>  <SCORE.INTRA>
2.19093

>  <SCORE.INTRA.DIHEDRAL>
9.31513

>  <SCORE.INTRA.DIHEDRAL.0>
2.1627

>  <SCORE.INTRA.POLAR>
0

>  <SCORE.INTRA.POLAR.0>
0

>  <SCORE.INTRA.REPUL>
0

>  <SCORE.INTRA.REPUL.0>
0

>  <SCORE.INTRA.SOLV>
0.0258352

>  <SCORE.INTRA.SOLV.lig_0>
-5.95779

>  <SCORE.INTRA.VDW>
-2.47955

>  <SCORE.INTRA.VDW.0>
3.81702

>  <SCORE.INTRA.norm>
0.0876373

>  <SCORE.RESTR>
0

>  <SCORE.RESTR.CAVITY>
0

>  <SCORE.RESTR.norm>
0

>  <SCORE.SYSTEM>
0

>  <SCORE.SYSTEM.CONST>
0

>  <SCORE.SYSTEM.DIHEDRAL>
0

>  <SCORE.SYSTEM.SOLV>
0

>  <SCORE.SYSTEM.norm>
0

>  <SCORE.heavy>
25

>  <SCORE.norm>
-1.79453

>  <RMSD>
6.085

$$$$
1q8n_lig
 OpenBabel11021811403D
libRbt.so/2013.1/901 2013/11/27
 25 27  0  0  0  0  0  0  0  0999 V2000
    1.2870   -2.6660    1.4637 C   0  0  0  0  0  0  0  0  0  0  0  0
    1.5150   -3.5134    2.8405 C   0  0  0  0  0  0  0  0  0  0  0  0
   -1.1047    2.7710    1.8376 N   0  0  0  0  0  0  0  0  0  0  0  0
    2.6445   -4.2105    3.1108 C   0  0  0  0  0  0  0  0  0  0  0  0
    2.6945   -5.1071   -3.8252 N   0  0  0  0  0  0  0  0  0  0  0  0
    2.8089   -4.9716    4.3708 C   0  0  0  0  0  0  0  0  0  0  0  0
    1.8128   -4.9783    5.2860 C   0  0  0  0  0  0  0  0  0  0  0  0
    0.6026   -4.2361    5.0208 C   0  0  0  0  0  0  0  0  0  0  0  0
    0.4656   -3.5553    3.8802 C   0  0  0  0  0  0  0  0  0  0  0  0
    0.6301   -1.1770    1.5713 C   0  0  0  0  0  0  0  0  0  0  0  0
    0.3221   -0.6332    2.7670 C   0  0  0  0  0  0  0  0  0  0  0  0
   -0.2781    0.7247    2.8842 C   0  0  0  0  0  0  0  0  0  0  0  0
   -0.5303    1.4600    1.7684 C   0  0  0  0  0  0  0  0  0  0  0  0
   -0.1967    0.8794    0.4540 C   0  0  0  0  0  0  0  0  0  0  0  0
    0.3413   -0.3451    0.3665 C   0  0  0  0  0  0  0  0  0  0  0  0
    1.7028   -3.2816   -0.0185 C   0  0  0  0  0  0  0  0  0  0  0  0
    1.5905   -4.7596   -0.2722 C   0  0  0  0  0  0  0  0  0  0  0  0
    1.9001   -5.3175   -1.4457 C   0  0  0  0  0  0  0  0  0  0  0  0
    2.3756   -4.4993   -2.5674 C   0  0  0  0  0  0  0  0  0  0  0  0
    2.5004   -3.1675   -2.3908 C   0  0  0  0  0  0  0  0  0  0  0  0
    2.1539   -2.5290   -1.0765 C   0  0  0  0  0  0  0  0  0  0  0  0
   -1.7350    3.2672    3.0230 C   0  0  0  0  0  0  0  0  0  0  0  0
   -1.0610    3.6360    0.6996 C   0  0  0  0  0  0  0  0  0  0  0  0
    1.7542   -5.9792   -4.4684 C   0  0  0  0  0  0  0  0  0  0  0  0
    3.9587   -4.8572   -4.4802 C   0  0  0  0  0  0  0  0  0  0  0  0
  1  2  1  0  0  0  0
  1 10  1  0  0  0  0
  1 16  1  0  0  0  0
  2  4  2  0  0  0  0
  2  9  1  0  0  0  0
  4  6  1  0  0  0  0
  6  7  2  0  0  0  0
  7  8  1  0  0  0  0
  8  9  2  0  0  0  0
 10 11  2  0  0  0  0
 10 15  1  0  0  0  0
 11 12  1  0  0  0  0
 12 13  2  0  0  0  0
 13  3  1  0  0  0  0
 13 14  1  0  0  0  0
 14 15  2  0  0  0  0
 16 17  2  0  0  0  0
 16 21  1  0  0  0  0
 17 18  1  0  0  0  0
 18 19  2  0  0  0  0
 19  5  1  0  0  0  0
 19 20  1  0  0  0  0
 20 21  2  0  0  0  0
 22  3  1  0  0  0  0
 23  3  1  0  0  0  0
 24  5  1  0  0  0  0
 25  5  1  0  0  0  0
M  END
>  <CHROM.1>
-136.29502280,2.22848507,32.99100010,-15.01968235,51.34749262,1.11433553
-2.24471468,0.77060914,-2.77995804,1.16846742,-1.30523880

>  <Name>
1q8n_lig

>  <RI>
0

>  <Rbt.Current_Directory>
/home/itssahil/PROJECTS/Mol_Feturizer/New_Systems/rnas/1q8n

>  <Rbt.Executable>
rbdock ($Id: //depot/dev/client3/rdock/2013.1/src/exe/rbdock.cxx#4 $)

>  <Rbt.Library>
libRbt.so (2013.1, Build901 2013/11/27)

>  <Rbt.Parameter_File>
/export/apps/rDock/src/rDock_2013.1_src/data/scripts/dock_solv.prm

>  <Rbt.Receptor>
prm/blind_docking_60.prm

>  <SCORE>
-44.9287

>  <SCORE.INTER>
-46.9239

>  <SCORE.INTER.CONST>
1

>  <SCORE.INTER.POLAR>
0

>  <SCORE.INTER.ROT>
5

>  <SCORE.INTER.SOLV>
9.25458

>  <SCORE.INTER.VDW>
-41.3008

>  <SCORE.INTER.norm>
-1.87695

>  <SCORE.INTRA>
1.99513

>  <SCORE.INTRA.DIHEDRAL>
8.65943

>  <SCORE.INTRA.DIHEDRAL.0>
2.1627

>  <SCORE.INTRA.POLAR>
0

>  <SCORE.INTRA.POLAR.0>
0

>  <SCORE.INTRA.REPUL>
0

>  <SCORE.INTRA.REPUL.0>
0

>  <SCORE.INTRA.SOLV>
0.0262579

>  <SCORE.INTRA.SOLV.lig_0>
-5.95779

>  <SCORE.INTRA.VDW>
-2.34771

>  <SCORE.INTRA.VDW.0>
3.81702

>  <SCORE.INTRA.norm>
0.0798052

>  <SCORE.RESTR>
0

>  <SCORE.RESTR.CAVITY>
0

>  <SCORE.RESTR.norm>
0

>  <SCORE.SYSTEM>
0

>  <SCORE.SYSTEM.CONST>
0

>  <SCORE.SYSTEM.DIHEDRAL>
0

>  <SCORE.SYSTEM.SOLV>
0

>  <SCORE.SYSTEM.norm>
0

>  <SCORE.heavy>
25

>  <SCORE.norm>
-1.79715

>  <RMSD>
6.100

$$$$
1q8n_lig
 OpenBabel11021811403D
libRbt.so/2013.1/901 2013/11/27
 25 27  0  0  0  0  0  0  0  0999 V2000
    1.5165   -2.7879    1.2226 C   0  0  0  0  0  0  0  0  0  0  0  0
    1.8624   -3.6351    2.5747 C   0  0  0  0  0  0  0  0  0  0  0  0
    2.5833   -5.3112   -4.0610 N   0  0  0  0  0  0  0  0  0  0  0  0
    0.9257   -4.2712    3.3183 C   0  0  0  0  0  0  0  0  0  0  0  0
   -0.7260    2.7695    1.2262 N   0  0  0  0  0  0  0  0  0  0  0  0
    1.2813   -5.0250    4.5428 C   0  0  0  0  0  0  0  0  0  0  0  0
    2.5727   -5.0896    4.9402 C   0  0  0  0  0  0  0  0  0  0  0  0
    3.5883   -4.4241    4.1581 C   0  0  0  0  0  0  0  0  0  0  0  0
    3.2548   -3.7461    3.0570 C   0  0  0  0  0  0  0  0  0  0  0  0
    1.8090   -3.4842   -0.2229 C   0  0  0  0  0  0  0  0  0  0  0  0
    1.6801   -4.8160   -0.3966 C   0  0  0  0  0  0  0  0  0  0  0  0
    1.9430   -5.4688   -1.7091 C   0  0  0  0  0  0  0  0  0  0  0  0
    2.3228   -4.7226   -2.7806 C   0  0  0  0  0  0  0  0  0  0  0  0
    2.4659   -3.2647   -2.6065 C   0  0  0  0  0  0  0  0  0  0  0  0
    2.2270   -2.6936   -1.4177 C   0  0  0  0  0  0  0  0  0  0  0  0
    0.8847   -1.2566    1.2904 C   0  0  0  0  0  0  0  0  0  0  0  0
    1.0034   -0.3457    0.0997 C   0  0  0  0  0  0  0  0  0  0  0  0
    0.5081    0.8948    0.0860 C   0  0  0  0  0  0  0  0  0  0  0  0
   -0.1892    1.4412    1.2560 C   0  0  0  0  0  0  0  0  0  0  0  0
   -0.3179    0.6671    2.3536 C   0  0  0  0  0  0  0  0  0  0  0  0
    0.2334   -0.7294    2.3801 C   0  0  0  0  0  0  0  0  0  0  0  0
    1.5891   -6.0490   -4.7790 C   0  0  0  0  0  0  0  0  0  0  0  0
    3.8710   -5.1723   -4.6674 C   0  0  0  0  0  0  0  0  0  0  0  0
   -1.6094    3.2181    2.2638 C   0  0  0  0  0  0  0  0  0  0  0  0
   -0.3916    3.6901    0.1631 C   0  0  0  0  0  0  0  0  0  0  0  0
  1  2  1  0  0  0  0
  1 10  1  0  0  0  0
  1 16  1  0  0  0  0
  2  4  2  0  0  0  0
  2  9  1  0  0  0  0
  4  6  1  0  0  0  0
  6  7  2  0  0  0  0
  7  8  1  0  0  0  0
  8  9  2  0  0  0  0
 10 11  2  0  0  0  0
 10 15  1  0  0  0  0
 11 12  1  0  0  0  0
 12 13  2  0  0  0  0
 13  3  1  0  0  0  0
 13 14  1  0  0  0  0
 14 15  2  0  0  0  0
 16 17  2  0  0  0  0
 16 21  1  0  0  0  0
 17 18  1  0  0  0  0
 18 19  2  0  0  0  0
 19  5  1  0  0  0  0
 19 20  1  0  0  0  0
 20 21  2  0  0  0  0
 22  3  1  0  0  0  0
 23  3  1  0  0  0  0
 24  5  1  0  0  0  0
 25  5  1  0  0  0  0
M  END
>  <CHROM.1>
-101.65400537,33.00528443,159.63349304,59.50331559,168.70826955,1.38067853
-2.34677245,0.42648088,-0.45411417,-1.18988745,1.64550872

>  <Name>
1q8n_lig

>  <RI>
0

>  <Rbt.Current_Directory>
/home/itssahil/PROJECTS/Mol_Feturizer/New_Systems/rnas/1q8n

>  <Rbt.Executable>
rbdock ($Id: //depot/dev/client3/rdock/2013.1/src/exe/rbdock.cxx#4 $)

>  <Rbt.Library>
libRbt.so (2013.1, Build901 2013/11/27)

>  <Rbt.Parameter_File>
/export/apps/rDock/src/rDock_2013.1_src/data/scripts/dock_solv.prm

>  <Rbt.Receptor>
prm/blind_docking_60.prm

>  <SCORE>
-43.1394

>  <SCORE.INTER>
-45.6128

>  <SCORE.INTER.CONST>
1

>  <SCORE.INTER.POLAR>
0

>  <SCORE.INTER.ROT>
5

>  <SCORE.INTER.SOLV>
10.1737

>  <SCORE.INTER.VDW>
-40.7331

>  <SCORE.INTER.norm>
-1.82451

>  <SCORE.INTRA>
2.47343

>  <SCORE.INTRA.DIHEDRAL>
9.99084

>  <SCORE.INTRA.DIHEDRAL.0>
2.1627

>  <SCORE.INTRA.POLAR>
0

>  <SCORE.INTRA.POLAR.0>
0

>  <SCORE.INTRA.REPUL>
0

>  <SCORE.INTRA.REPUL.0>
0

>  <SCORE.INTRA.SOLV>
0.00421718

>  <SCORE.INTRA.SOLV.lig_0>
-5.95779

>  <SCORE.INTRA.VDW>
-2.5241

>  <SCORE.INTRA.VDW.0>
3.81702

>  <SCORE.INTRA.norm>
0.0989372

>  <SCORE.RESTR>
0

>  <SCORE.RESTR.CAVITY>
0

>  <SCORE.RESTR.norm>
0

>  <SCORE.SYSTEM>
0

>  <SCORE.SYSTEM.CONST>
0

>  <SCORE.SYSTEM.DIHEDRAL>
0

>  <SCORE.SYSTEM.SOLV>
0

>  <SCORE.SYSTEM.norm>
0

>  <SCORE.heavy>
25

>  <SCORE.norm>
-1.72558

>  <RMSD>
6.108

$$$$
1q8n_lig
 OpenBabel11021811403D
libRbt.so/2013.1/901 2013/11/27
 25 27  0  0  0  0  0  0  0  0999 V2000
    1.4902   -2.8894    1.1929 C   0  0  0  0  0  0  0  0  0  0  0  0
    1.8196   -3.6450    2.6022 C   0  0  0  0  0  0  0  0  0  0  0  0
   -0.8066    2.5980    1.3827 N   0  0  0  0  0  0  0  0  0  0  0  0
    0.8663   -4.1634    3.4130 C   0  0  0  0  0  0  0  0  0  0  0  0
    2.6393   -5.2849   -4.1787 N   0  0  0  0  0  0  0  0  0  0  0  0
    1.2077   -4.8368    4.6873 C   0  0  0  0  0  0  0  0  0  0  0  0
    2.5025   -4.9456    5.0634 C   0  0  0  0  0  0  0  0  0  0  0  0
    3.5353   -4.4056    4.2103 C   0  0  0  0  0  0  0  0  0  0  0  0
    3.2147   -3.7991    3.0647 C   0  0  0  0  0  0  0  0  0  0  0  0
    0.8588   -1.3866    1.2499 C   0  0  0  0  0  0  0  0  0  0  0  0
    0.4279   -0.8526    2.4116 C   0  0  0  0  0  0  0  0  0  0  0  0
   -0.1512    0.5176    2.4823 C   0  0  0  0  0  0  0  0  0  0  0  0
   -0.2574    1.2745    1.3575 C   0  0  0  0  0  0  0  0  0  0  0  0
    0.2116    0.7048    0.0802 C   0  0  0  0  0  0  0  0  0  0  0  0
    0.7286   -0.5309    0.0341 C   0  0  0  0  0  0  0  0  0  0  0  0
    1.7796   -3.6101   -0.2718 C   0  0  0  0  0  0  0  0  0  0  0  0
    2.2603   -2.7810   -1.4307 C   0  0  0  0  0  0  0  0  0  0  0  0
    2.5210   -3.3012   -2.6332 C   0  0  0  0  0  0  0  0  0  0  0  0
    2.3464   -4.7359   -2.8878 C   0  0  0  0  0  0  0  0  0  0  0  0
    1.9110   -5.5242   -1.8830 C   0  0  0  0  0  0  0  0  0  0  0  0
    1.6163   -4.9509   -0.5268 C   0  0  0  0  0  0  0  0  0  0  0  0
   -1.5467    3.0966    2.5016 C   0  0  0  0  0  0  0  0  0  0  0  0
   -0.6241    3.4734    0.2667 C   0  0  0  0  0  0  0  0  0  0  0  0
    3.9444   -5.1289   -4.7538 C   0  0  0  0  0  0  0  0  0  0  0  0
    1.6399   -6.0103   -4.9298 C   0  0  0  0  0  0  0  0  0  0  0  0
  1  2  1  0  0  0  0
  1 10  1  0  0  0  0
  1 16  1  0  0  0  0
  2  4  2  0  0  0  0
  2  9  1  0  0  0  0
  4  6  1  0  0  0  0
  6  7  2  0  0  0  0
  7  8  1  0  0  0  0
  8  9  2  0  0  0  0
 10 11  2  0  0  0  0
 10 15  1  0  0  0  0
 11 12  1  0  0  0  0
 12 13  2  0  0  0  0
 13  3  1  0  0  0  0
 13 14  1  0  0  0  0
 14 15  2  0  0  0  0
 16 17  2  0  0  0  0
 16 21  1  0  0  0  0
 17 18  1  0  0  0  0
 18 19  2  0  0  0  0
 19  5  1  0  0  0  0
 19 20  1  0  0  0  0
 20 21  2  0  0  0  0
 22  3  1  0  0  0  0
 23  3  1  0  0  0  0
 24  5  1  0  0  0  0
 25  5  1  0  0  0  0
M  END
>  <CHROM.1>
73.98841688,-9.93272485,-143.65197758,-14.43104171,57.39134972,1.35108079
-2.40670457,0.43581788,-2.59120718,1.17084636,-1.50423853

>  <Name>
1q8n_lig

>  <RI>
0

>  <Rbt.Current_Directory>
/home/itssahil/PROJECTS/Mol_Feturizer/New_Systems/rnas/1q8n

>  <Rbt.Executable>
rbdock ($Id: //depot/dev/client3/rdock/2013.1/src/exe/rbdock.cxx#4 $)

>  <Rbt.Library>
libRbt.so (2013.1, Build901 2013/11/27)

>  <Rbt.Parameter_File>
/export/apps/rDock/src/rDock_2013.1_src/data/scripts/dock_solv.prm

>  <Rbt.Receptor>
prm/blind_docking_80.prm

>  <SCORE>
-44.9884

>  <SCORE.INTER>
-47.2406

>  <SCORE.INTER.CONST>
1

>  <SCORE.INTER.POLAR>
0

>  <SCORE.INTER.ROT>
5

>  <SCORE.INTER.SOLV>
9.63895

>  <SCORE.INTER.VDW>
-41.6401

>  <SCORE.INTER.norm>
-1.88962

>  <SCORE.INTRA>
2.22601

>  <SCORE.INTRA.DIHEDRAL>
9.87466

>  <SCORE.INTRA.DIHEDRAL.0>
2.1627

>  <SCORE.INTRA.POLAR>
0

>  <SCORE.INTRA.POLAR.0>
0

>  <SCORE.INTRA.REPUL>
0

>  <SCORE.INTRA.REPUL.0>
0

>  <SCORE.INTRA.SOLV>
0.00770754

>  <SCORE.INTRA.SOLV.lig_0>
-5.95779

>  <SCORE.INTRA.VDW>
-2.71518

>  <SCORE.INTRA.VDW.0>
3.81702

>  <SCORE.INTRA.norm>
0.0890403

>  <SCORE.RESTR>
0.0261906

>  <SCORE.RESTR.CAVITY>
0.0261906

>  <SCORE.RESTR.norm>
0.00104762

>  <SCORE.SYSTEM>
0

>  <SCORE.SYSTEM.CONST>
0

>  <SCORE.SYSTEM.DIHEDRAL>
0

>  <SCORE.SYSTEM.SOLV>
0

>  <SCORE.SYSTEM.norm>
0

>  <SCORE.heavy>
25

>  <SCORE.norm>
-1.79954

>  <RMSD>
6.117

$$$$
1q8n_lig
 OpenBabel11021811403D
libRbt.so/2013.1/901 2013/11/27
 25 27  0  0  0  0  0  0  0  0999 V2000
    1.5846   -2.8901    1.2170 C   0  0  0  0  0  0  0  0  0  0  0  0
    1.9712   -3.6306    2.6197 C   0  0  0  0  0  0  0  0  0  0  0  0
   -0.8243    2.5457    1.4826 N   0  0  0  0  0  0  0  0  0  0  0  0
    1.0672   -4.2655    3.4037 C   0  0  0  0  0  0  0  0  0  0  0  0
    2.6303   -5.3012   -4.1687 N   0  0  0  0  0  0  0  0  0  0  0  0
    1.4590   -4.9205    4.6731 C   0  0  0  0  0  0  0  0  0  0  0  0
    2.7514   -4.8931    5.0718 C   0  0  0  0  0  0  0  0  0  0  0  0
    3.7327   -4.2274    4.2474 C   0  0  0  0  0  0  0  0  0  0  0  0
    3.3667   -3.6389    3.1059 C   0  0  0  0  0  0  0  0  0  0  0  0
    0.9262   -1.3994    1.2848 C   0  0  0  0  0  0  0  0  0  0  0  0
    0.7595   -0.6572    0.1705 C   0  0  0  0  0  0  0  0  0  0  0  0
    0.1604    0.7056    0.2136 C   0  0  0  0  0  0  0  0  0  0  0  0
   -0.2414    1.2393    1.3980 C   0  0  0  0  0  0  0  0  0  0  0  0
   -0.0675    0.4386    2.6247 C   0  0  0  0  0  0  0  0  0  0  0  0
    0.4753   -0.7856    2.5682 C   0  0  0  0  0  0  0  0  0  0  0  0
    1.8432   -3.6141   -0.2519 C   0  0  0  0  0  0  0  0  0  0  0  0
    2.3532   -2.7984   -1.4078 C   0  0  0  0  0  0  0  0  0  0  0  0
    2.5912   -3.3222   -2.6133 C   0  0  0  0  0  0  0  0  0  0  0  0
    2.3612   -4.7479   -2.8746 C   0  0  0  0  0  0  0  0  0  0  0  0
    1.8978   -5.5238   -1.8727 C   0  0  0  0  0  0  0  0  0  0  0  0
    1.6280   -4.9464   -0.5131 C   0  0  0  0  0  0  0  0  0  0  0  0
   -0.7318    3.4941    0.4146 C   0  0  0  0  0  0  0  0  0  0  0  0
   -1.5295    2.9434    2.6616 C   0  0  0  0  0  0  0  0  0  0  0  0
    1.6077   -6.0132   -4.8799 C   0  0  0  0  0  0  0  0  0  0  0  0
    3.9259   -5.1547   -4.7927 C   0  0  0  0  0  0  0  0  0  0  0  0
  1  2  1  0  0  0  0
  1 10  1  0  0  0  0
  1 16  1  0  0  0  0
  2  4  2  0  0  0  0
  2  9  1  0  0  0  0
  4  6  1  0  0  0  0
  6  7  2  0  0  0  0
  7  8  1  0  0  0  0
  8  9  2  0  0  0  0
 10 11  2  0  0  0  0
 10 15  1  0  0  0  0
 11 12  1  0  0  0  0
 12 13  2  0  0  0  0
 13  3  1  0  0  0  0
 13 14  1  0  0  0  0
 14 15  2  0  0  0  0
 16 17  2  0  0  0  0
 16 21  1  0  0  0  0
 17 18  1  0  0  0  0
 18 19  2  0  0  0  0
 19  5  1  0  0  0  0
 19 20  1  0  0  0  0
 20 21  2  0  0  0  0
 22  3  1  0  0  0  0
 23  3  1  0  0  0  0
 24  5  1  0  0  0  0
 25  5  1  0  0  0  0
M  END
>  <CHROM.1>
80.04566658,170.48721836,-139.91781562,-15.45350911,-124.93673142,1.41076321
-2.41742782,0.48804621,-2.50390065,1.15083791,-1.58070964

>  <Name>
1q8n_lig

>  <RI>
0

>  <Rbt.Current_Directory>
/home/itssahil/PROJECTS/Mol_Feturizer/New_Systems/rnas/1q8n

>  <Rbt.Executable>
rbdock ($Id: //depot/dev/client3/rdock/2013.1/src/exe/rbdock.cxx#4 $)

>  <Rbt.Library>
libRbt.so (2013.1, Build901 2013/11/27)

>  <Rbt.Parameter_File>
/export/apps/rDock/src/rDock_2013.1_src/data/scripts/dock_solv.prm

>  <Rbt.Receptor>
prm/blind_docking_100.prm

>  <SCORE>
-44.5561

>  <SCORE.INTER>
-46.6846

>  <SCORE.INTER.CONST>
1

>  <SCORE.INTER.POLAR>
0

>  <SCORE.INTER.ROT>
5

>  <SCORE.INTER.SOLV>
9.73426

>  <SCORE.INTER.VDW>
-41.3011

>  <SCORE.INTER.norm>
-1.86738

>  <SCORE.INTRA>
2.08291

>  <SCORE.INTRA.DIHEDRAL>
9.50682

>  <SCORE.INTRA.DIHEDRAL.0>
2.1627

>  <SCORE.INTRA.POLAR>
0

>  <SCORE.INTRA.POLAR.0>
0

>  <SCORE.INTRA.REPUL>
0

>  <SCORE.INTRA.REPUL.0>
0

>  <SCORE.INTRA.SOLV>
-0.00140303

>  <SCORE.INTRA.SOLV.lig_0>
-5.95779

>  <SCORE.INTRA.VDW>
-2.6698

>  <SCORE.INTRA.VDW.0>
3.81702

>  <SCORE.INTRA.norm>
0.0833163

>  <SCORE.RESTR>
0.045579

>  <SCORE.RESTR.CAVITY>
0.045579

>  <SCORE.RESTR.norm>
0.00182316

>  <SCORE.SYSTEM>
0

>  <SCORE.SYSTEM.CONST>
0

>  <SCORE.SYSTEM.DIHEDRAL>
0

>  <SCORE.SYSTEM.SOLV>
0

>  <SCORE.SYSTEM.norm>
0

>  <SCORE.heavy>
25

>  <SCORE.norm>
-1.78224

>  <RMSD>
6.120

$$$$
1q8n_lig
 OpenBabel11021811403D
libRbt.so/2013.1/901 2013/11/27
 25 27  0  0  0  0  0  0  0  0999 V2000
    1.5442   -2.8555    1.2694 C   0  0  0  0  0  0  0  0  0  0  0  0
    1.9058   -3.6043    2.6744 C   0  0  0  0  0  0  0  0  0  0  0  0
   -0.8496    2.5875    1.5232 N   0  0  0  0  0  0  0  0  0  0  0  0
    3.1708   -3.7659    3.1313 C   0  0  0  0  0  0  0  0  0  0  0  0
    2.6613   -5.2424   -4.1128 N   0  0  0  0  0  0  0  0  0  0  0  0
    3.4563   -4.4571    4.4098 C   0  0  0  0  0  0  0  0  0  0  0  0
    2.4357   -4.9439    5.1524 C   0  0  0  0  0  0  0  0  0  0  0  0
    1.0788   -4.7765    4.6870 C   0  0  0  0  0  0  0  0  0  0  0  0
    0.8344   -4.1531    3.5316 C   0  0  0  0  0  0  0  0  0  0  0  0
    0.8903   -1.3627    1.3341 C   0  0  0  0  0  0  0  0  0  0  0  0
    0.7968   -0.5917    0.2309 C   0  0  0  0  0  0  0  0  0  0  0  0
    0.2029    0.7734    0.2713 C   0  0  0  0  0  0  0  0  0  0  0  0
   -0.2691    1.2799    1.4418 C   0  0  0  0  0  0  0  0  0  0  0  0
   -0.1757    0.4476    2.6561 C   0  0  0  0  0  0  0  0  0  0  0  0
    0.3635   -0.7784    2.6023 C   0  0  0  0  0  0  0  0  0  0  0  0
    1.8234   -3.5734   -0.1987 C   0  0  0  0  0  0  0  0  0  0  0  0
    2.3262   -2.7478   -1.3508 C   0  0  0  0  0  0  0  0  0  0  0  0
    2.5800   -3.2661   -2.5554 C   0  0  0  0  0  0  0  0  0  0  0  0
    2.3755   -4.6952   -2.8196 C   0  0  0  0  0  0  0  0  0  0  0  0
    1.9195   -5.4799   -1.8213 C   0  0  0  0  0  0  0  0  0  0  0  0
    1.6322   -4.9087   -0.4626 C   0  0  0  0  0  0  0  0  0  0  0  0
   -1.5693    3.0332    2.6773 C   0  0  0  0  0  0  0  0  0  0  0  0
   -0.7209    3.5006    0.4301 C   0  0  0  0  0  0  0  0  0  0  0  0
    1.6642   -5.9950   -4.8183 C   0  0  0  0  0  0  0  0  0  0  0  0
    3.9485   -5.0491   -4.7414 C   0  0  0  0  0  0  0  0  0  0  0  0
  1  2  1  0  0  0  0
  1 10  1  0  0  0  0
  1 16  1  0  0  0  0
  2  4  2  0  0  0  0
  2  9  1  0  0  0  0
  4  6  1  0  0  0  0
  6  7  2  0  0  0  0
  7  8  1  0  0  0  0
  8  9  2  0  0  0  0
 10 11  2  0  0  0  0
 10 15  1  0  0  0  0
 11 12  1  0  0  0  0
 12 13  2  0  0  0  0
 13  3  1  0  0  0  0
 13 14  1  0  0  0  0
 14 15  2  0  0  0  0
 16 17  2  0  0  0  0
 16 21  1  0  0  0  0
 17 18  1  0  0  0  0
 18 19  2  0  0  0  0
 19  5  1  0  0  0  0
 19 20  1  0  0  0  0
 20 21  2  0  0  0  0
 22  3  1  0  0  0  0
 23  3  1  0  0  0  0
 24  5  1  0  0  0  0
 25  5  1  0  0  0  0
M  END
>  <CHROM.1>
-106.48966286,167.58637739,-141.24323057,168.08473225,-126.27242697,1.34559856
-2.38727781,0.54200240,-2.59650056,1.16749002,-1.47668881

>  <Name>
1q8n_lig

>  <RI>
0

>  <Rbt.Current_Directory>
/home/itssahil/PROJECTS/Mol_Feturizer/New_Systems/rnas/1q8n

>  <Rbt.Executable>
rbdock ($Id: //depot/dev/client3/rdock/2013.1/src/exe/rbdock.cxx#4 $)

>  <Rbt.Library>
libRbt.so (2013.1, Build901 2013/11/27)

>  <Rbt.Parameter_File>
/export/apps/rDock/src/rDock_2013.1_src/data/scripts/dock_solv.prm

>  <Rbt.Receptor>
prm/blind_docking_100.prm

>  <SCORE>
-44.9004

>  <SCORE.INTER>
-46.9033

>  <SCORE.INTER.CONST>
1

>  <SCORE.INTER.POLAR>
0

>  <SCORE.INTER.ROT>
5

>  <SCORE.INTER.SOLV>
9.5592

>  <SCORE.INTER.VDW>
-41.3886

>  <SCORE.INTER.norm>
-1.87613

>  <SCORE.INTRA>
1.99948

>  <SCORE.INTRA.DIHEDRAL>
8.8611

>  <SCORE.INTRA.DIHEDRAL.0>
2.1627

>  <SCORE.INTRA.POLAR>
0

>  <SCORE.INTRA.POLAR.0>
0

>  <SCORE.INTRA.REPUL>
0

>  <SCORE.INTRA.REPUL.0>
0

>  <SCORE.INTRA.SOLV>
0.00561632

>  <SCORE.INTRA.SOLV.lig_0>
-5.95779

>  <SCORE.INTRA.VDW>
-2.43388

>  <SCORE.INTRA.VDW.0>
3.81702

>  <SCORE.INTRA.norm>
0.0799792

>  <SCORE.RESTR>
0.00338219

>  <SCORE.RESTR.CAVITY>
0.00338219

>  <SCORE.RESTR.norm>
0.000135288

>  <SCORE.SYSTEM>
0

>  <SCORE.SYSTEM.CONST>
0

>  <SCORE.SYSTEM.DIHEDRAL>
0

>  <SCORE.SYSTEM.SOLV>
0

>  <SCORE.SYSTEM.norm>
0

>  <SCORE.heavy>
25

>  <SCORE.norm>
-1.79602

>  <RMSD>
6.131

$$$$
1q8n_lig
 OpenBabel11021811403D
libRbt.so/2013.1/901 2013/11/27
 25 27  0  0  0  0  0  0  0  0999 V2000
    1.5618   -2.8898    1.2461 C   0  0  0  0  0  0  0  0  0  0  0  0
    1.9515   -3.6286    2.6488 C   0  0  0  0  0  0  0  0  0  0  0  0
   -0.8792    2.5317    1.5121 N   0  0  0  0  0  0  0  0  0  0  0  0
    3.2224   -3.7513    3.1012 C   0  0  0  0  0  0  0  0  0  0  0  0
    2.6251   -5.2912   -4.1406 N   0  0  0  0  0  0  0  0  0  0  0  0
    3.5337   -4.4348    4.3778 C   0  0  0  0  0  0  0  0  0  0  0  0
    2.5314   -4.9541    5.1232 C   0  0  0  0  0  0  0  0  0  0  0  0
    1.1683   -4.8285    4.6626 C   0  0  0  0  0  0  0  0  0  0  0  0
    0.9006   -4.2116    3.5090 C   0  0  0  0  0  0  0  0  0  0  0  0
    0.8945   -1.4031    1.3139 C   0  0  0  0  0  0  0  0  0  0  0  0
    0.6832   -0.6796    0.1948 C   0  0  0  0  0  0  0  0  0  0  0  0
    0.0752    0.6791    0.2378 C   0  0  0  0  0  0  0  0  0  0  0  0
   -0.2893    1.2284    1.4273 C   0  0  0  0  0  0  0  0  0  0  0  0
   -0.0665    0.4483    2.6593 C   0  0  0  0  0  0  0  0  0  0  0  0
    0.4837   -0.7726    2.6027 C   0  0  0  0  0  0  0  0  0  0  0  0
    1.8263   -3.6116   -0.2229 C   0  0  0  0  0  0  0  0  0  0  0  0
    2.3189   -2.7894   -1.3817 C   0  0  0  0  0  0  0  0  0  0  0  0
    2.5607   -3.3110   -2.5875 C   0  0  0  0  0  0  0  0  0  0  0  0
    2.3522   -4.7404   -2.8461 C   0  0  0  0  0  0  0  0  0  0  0  0
    1.9050   -5.5223   -1.8415 C   0  0  0  0  0  0  0  0  0  0  0  0
    1.6313   -4.9474   -0.4816 C   0  0  0  0  0  0  0  0  0  0  0  0
   -1.5429    2.9943    2.6927 C   0  0  0  0  0  0  0  0  0  0  0  0
   -0.8174    3.4228    0.3952 C   0  0  0  0  0  0  0  0  0  0  0  0
    1.6053   -6.0036   -4.8553 C   0  0  0  0  0  0  0  0  0  0  0  0
    3.9219   -5.1415   -4.7614 C   0  0  0  0  0  0  0  0  0  0  0  0
  1  2  1  0  0  0  0
  1 10  1  0  0  0  0
  1 16  1  0  0  0  0
  2  4  2  0  0  0  0
  2  9  1  0  0  0  0
  4  6  1  0  0  0  0
  6  7  2  0  0  0  0
  7  8  1  0  0  0  0
  8  9  2  0  0  0  0
 10 11  2  0  0  0  0
 10 15  1  0  0  0  0
 11 12  1  0  0  0  0
 12 13  2  0  0  0  0
 13  3  1  0  0  0  0
 13 14  1  0  0  0  0
 14 15  2  0  0  0  0
 16 17  2  0  0  0  0
 16 21  1  0  0  0  0
 17 18  1  0  0  0  0
 18 19  2  0  0  0  0
 19  5  1  0  0  0  0
 19 20  1  0  0  0  0
 20 21  2  0  0  0  0
 22  3  1  0  0  0  0
 23  3  1  0  0  0  0
 24  5  1  0  0  0  0
 25  5  1  0  0  0  0
M  END
>  <CHROM.1>
-105.05891849,172.74280949,-140.55247941,165.25423462,-124.03800577,1.34962844
-2.42703968,0.51983973,-2.54798423,1.15789476,-1.52702599

>  <Name>
1q8n_lig

>  <RI>
0

>  <Rbt.Current_Directory>
/home/itssahil/PROJECTS/Mol_Feturizer/New_Systems/rnas/1q8n

>  <Rbt.Executable>
rbdock ($Id: //depot/dev/client3/rdock/2013.1/src/exe/rbdock.cxx#4 $)

>  <Rbt.Library>
libRbt.so (2013.1, Build901 2013/11/27)

>  <Rbt.Parameter_File>
/export/apps/rDock/src/rDock_2013.1_src/data/scripts/dock_solv.prm

>  <Rbt.Receptor>
prm/blind_docking_100.prm

>  <SCORE>
-45.1201

>  <SCORE.INTER>
-47.2584

>  <SCORE.INTER.CONST>
1

>  <SCORE.INTER.POLAR>
0

>  <SCORE.INTER.ROT>
5

>  <SCORE.INTER.SOLV>
9.63419

>  <SCORE.INTER.VDW>
-41.6503

>  <SCORE.INTER.norm>
-1.89033

>  <SCORE.INTRA>
2.1314

>  <SCORE.INTRA.DIHEDRAL>
9.61475

>  <SCORE.INTRA.DIHEDRAL.0>
2.1627

>  <SCORE.INTRA.POLAR>
0

>  <SCORE.INTRA.POLAR.0>
0

>  <SCORE.INTRA.REPUL>
0

>  <SCORE.INTRA.REPUL.0>
0

>  <SCORE.INTRA.SOLV>
0.00423843

>  <SCORE.INTRA.SOLV.lig_0>
-5.95779

>  <SCORE.INTRA.VDW>
-2.6781

>  <SCORE.INTRA.VDW.0>
3.81702

>  <SCORE.INTRA.norm>
0.085256

>  <SCORE.RESTR>
0.00683337

>  <SCORE.RESTR.CAVITY>
0.00683337

>  <SCORE.RESTR.norm>
0.000273335

>  <SCORE.SYSTEM>
0

>  <SCORE.SYSTEM.CONST>
0

>  <SCORE.SYSTEM.DIHEDRAL>
0

>  <SCORE.SYSTEM.SOLV>
0

>  <SCORE.SYSTEM.norm>
0

>  <SCORE.heavy>
25

>  <SCORE.norm>
-1.80481

>  <RMSD>
6.137

$$$$
1q8n_lig
 OpenBabel11021811403D
libRbt.so/2013.1/901 2013/11/27
 25 27  0  0  0  0  0  0  0  0999 V2000
    1.4847   -2.9018    1.2962 C   0  0  0  0  0  0  0  0  0  0  0  0
    1.8113   -3.6671    2.7009 C   0  0  0  0  0  0  0  0  0  0  0  0
   -0.9025    2.5440    1.5553 N   0  0  0  0  0  0  0  0  0  0  0  0
    0.8608   -4.2356    3.4809 C   0  0  0  0  0  0  0  0  0  0  0  0
    2.7258   -5.2299   -4.0845 N   0  0  0  0  0  0  0  0  0  0  0  0
    1.1991   -4.9161    4.7522 C   0  0  0  0  0  0  0  0  0  0  0  0
    2.4883   -4.9804    5.1570 C   0  0  0  0  0  0  0  0  0  0  0  0
    3.5183   -4.3865    4.3370 C   0  0  0  0  0  0  0  0  0  0  0  0
    3.2004   -3.7742    3.1937 C   0  0  0  0  0  0  0  0  0  0  0  0
    0.8322   -1.4084    1.3622 C   0  0  0  0  0  0  0  0  0  0  0  0
    0.6434   -0.6777    0.2438 C   0  0  0  0  0  0  0  0  0  0  0  0
    0.0491    0.6872    0.2851 C   0  0  0  0  0  0  0  0  0  0  0  0
   -0.3252    1.2349    1.4722 C   0  0  0  0  0  0  0  0  0  0  0  0
   -0.1269    0.4470    2.7034 C   0  0  0  0  0  0  0  0  0  0  0  0
    0.4111   -0.7794    2.6484 C   0  0  0  0  0  0  0  0  0  0  0  0
    1.7978   -3.6036   -0.1728 C   0  0  0  0  0  0  0  0  0  0  0  0
    2.3275   -2.7657   -1.3037 C   0  0  0  0  0  0  0  0  0  0  0  0
    2.6091   -3.2709   -2.5078 C   0  0  0  0  0  0  0  0  0  0  0  0
    2.4102   -4.6968   -2.7924 C   0  0  0  0  0  0  0  0  0  0  0  0
    1.9308   -5.4922   -1.8136 C   0  0  0  0  0  0  0  0  0  0  0  0
    1.6122   -4.9358   -0.4558 C   0  0  0  0  0  0  0  0  0  0  0  0
   -0.8287    3.4812    0.4761 C   0  0  0  0  0  0  0  0  0  0  0  0
   -1.5825    2.9557    2.7441 C   0  0  0  0  0  0  0  0  0  0  0  0
    4.0376   -5.0579   -4.6393 C   0  0  0  0  0  0  0  0  0  0  0  0
    1.7429   -5.9553   -4.8573 C   0  0  0  0  0  0  0  0  0  0  0  0
  1  2  1  0  0  0  0
  1 10  1  0  0  0  0
  1 16  1  0  0  0  0
  2  4  2  0  0  0  0
  2  9  1  0  0  0  0
  4  6  1  0  0  0  0
  6  7  2  0  0  0  0
  7  8  1  0  0  0  0
  8  9  2  0  0  0  0
 10 11  2  0  0  0  0
 10 15  1  0  0  0  0
 11 12  1  0  0  0  0
 12 13  2  0  0  0  0
 13  3  1  0  0  0  0
 13 14  1  0  0  0  0
 14 15  2  0  0  0  0
 16 17  2  0  0  0  0
 16 21  1  0  0  0  0
 17 18  1  0  0  0  0
 18 19  2  0  0  0  0
 19  5  1  0  0  0  0
 19 20  1  0  0  0  0
 20 21  2  0  0  0  0
 22  3  1  0  0  0  0
 23  3  1  0  0  0  0
 24  5  1  0  0  0  0
 25  5  1  0  0  0  0
M  END
>  <CHROM.1>
75.68768836,174.34233060,-141.33983366,-15.55223131,55.49167022,1.34264171
-2.41718482,0.56800736,-2.59572809,1.15353556,-1.48214016

>  <Name>
1q8n_lig

>  <RI>
0

>  <Rbt.Current_Directory>
/home/itssahil/PROJECTS/Mol_Feturizer/New_Systems/rnas/1q8n

>  <Rbt.Executable>
rbdock ($Id: //depot/dev/client3/rdock/2013.1/src/exe/rbdock.cxx#4 $)

>  <Rbt.Library>
libRbt.so (2013.1, Build901 2013/11/27)

>  <Rbt.Parameter_File>
/export/apps/rDock/src/rDock_2013.1_src/data/scripts/dock_solv.prm

>  <Rbt.Receptor>
prm/blind_docking_60.prm

>  <SCORE>
-44.9896

>  <SCORE.INTER>
-47.0944

>  <SCORE.INTER.CONST>
1

>  <SCORE.INTER.POLAR>
0

>  <SCORE.INTER.ROT>
5

>  <SCORE.INTER.SOLV>
9.58803

>  <SCORE.INTER.VDW>
-41.5256

>  <SCORE.INTER.norm>
-1.88378

>  <SCORE.INTRA>
2.10478

>  <SCORE.INTRA.DIHEDRAL>
9.60802

>  <SCORE.INTRA.DIHEDRAL.0>
2.1627

>  <SCORE.INTRA.POLAR>
0

>  <SCORE.INTRA.POLAR.0>
0

>  <SCORE.INTRA.REPUL>
0

>  <SCORE.INTRA.REPUL.0>
0

>  <SCORE.INTRA.SOLV>
0.000975326

>  <SCORE.INTRA.SOLV.lig_0>
-5.95779

>  <SCORE.INTRA.VDW>
-2.69972

>  <SCORE.INTRA.VDW.0>
3.81702

>  <SCORE.INTRA.norm>
0.0841913

>  <SCORE.RESTR>
0

>  <SCORE.RESTR.CAVITY>
0

>  <SCORE.RESTR.norm>
0

>  <SCORE.SYSTEM>
0

>  <SCORE.SYSTEM.CONST>
0

>  <SCORE.SYSTEM.DIHEDRAL>
0

>  <SCORE.SYSTEM.SOLV>
0

>  <SCORE.SYSTEM.norm>
0

>  <SCORE.heavy>
25

>  <SCORE.norm>
-1.79959

>  <RMSD>
6.148

$$$$
1q8n_lig
 OpenBabel11021811403D
libRbt.so/2013.1/901 2013/11/27
 25 27  0  0  0  0  0  0  0  0999 V2000
    1.3022   -2.5056    1.1735 C   0  0  0  0  0  0  0  0  0  0  0  0
    0.5677   -1.0488    1.1128 C   0  0  0  0  0  0  0  0  0  0  0  0
    2.7209   -5.1861   -3.9475 N   0  0  0  0  0  0  0  0  0  0  0  0
    0.3436   -0.2786    2.2044 C   0  0  0  0  0  0  0  0  0  0  0  0
    2.8074   -5.1141    6.3545 N   0  0  0  0  0  0  0  0  0  0  0  0
   -0.3320    1.0358    2.1065 C   0  0  0  0  0  0  0  0  0  0  0  0
   -0.7403    1.4927    0.9005 C   0  0  0  0  0  0  0  0  0  0  0  0
   -0.5052    0.6905   -0.2772 C   0  0  0  0  0  0  0  0  0  0  0  0
    0.1033   -0.4938   -0.1757 C   0  0  0  0  0  0  0  0  0  0  0  0
    1.6908   -3.2354   -0.2324 C   0  0  0  0  0  0  0  0  0  0  0  0
    2.1074   -2.5219   -1.2991 C   0  0  0  0  0  0  0  0  0  0  0  0
    2.4663   -3.1713   -2.5903 C   0  0  0  0  0  0  0  0  0  0  0  0
    2.3830   -4.5221   -2.7233 C   0  0  0  0  0  0  0  0  0  0  0  0
    1.9312   -5.3158   -1.5649 C   0  0  0  0  0  0  0  0  0  0  0  0
    1.6103   -4.7150   -0.4105 C   0  0  0  0  0  0  0  0  0  0  0  0
    1.6537   -3.2460    2.6146 C   0  0  0  0  0  0  0  0  0  0  0  0
    3.0870   -3.4222    3.0344 C   0  0  0  0  0  0  0  0  0  0  0  0
    3.4373   -4.0010    4.1862 C   0  0  0  0  0  0  0  0  0  0  0  0
    2.4203   -4.5046    5.1167 C   0  0  0  0  0  0  0  0  0  0  0  0
    1.1187   -4.3771    4.7852 C   0  0  0  0  0  0  0  0  0  0  0  0
    0.7129   -3.7268    3.4939 C   0  0  0  0  0  0  0  0  0  0  0  0
    1.7747   -5.9770   -4.6739 C   0  0  0  0  0  0  0  0  0  0  0  0
    4.0406   -5.0722   -4.4866 C   0  0  0  0  0  0  0  0  0  0  0  0
    4.0734   -4.8008    6.9524 C   0  0  0  0  0  0  0  0  0  0  0  0
    1.9394   -6.0492    7.0340 C   0  0  0  0  0  0  0  0  0  0  0  0
  1  2  1  0  0  0  0
  1 10  1  0  0  0  0
  1 16  1  0  0  0  0
  2  4  2  0  0  0  0
  2  9  1  0  0  0  0
  4  6  1  0  0  0  0
  6  7  2  0  0  0  0
  7  8  1  0  0  0  0
  8  9  2  0  0  0  0
 10 11  2  0  0  0  0
 10 15  1  0  0  0  0
 11 12  1  0  0  0  0
 12 13  2  0  0  0  0
 13  3  1  0  0  0  0
 13 14  1  0  0  0  0
 14 15  2  0  0  0  0
 16 17  2  0  0  0  0
 16 21  1  0  0  0  0
 17 18  1  0  0  0  0
 18 19  2  0  0  0  0
 19  5  1  0  0  0  0
 19 20  1  0  0  0  0
 20 21  2  0  0  0  0
 22  3  1  0  0  0  0
 23  3  1  0  0  0  0
 24  5  1  0  0  0  0
 25  5  1  0  0  0  0
M  END
>  <CHROM.1>
-171.80686058,36.09051663,-112.47889173,-119.78852688,24.28327141,1.74483054
-3.26807972,1.14884235,1.61788084,1.08712568,-1.58284194

>  <Name>
1q8n_lig

>  <RI>
0

>  <Rbt.Current_Directory>
/home/itssahil/PROJECTS/Mol_Feturizer/New_Systems/rnas/1q8n

>  <Rbt.Executable>
rbdock ($Id: //depot/dev/client3/rdock/2013.1/src/exe/rbdock.cxx#4 $)

>  <Rbt.Library>
libRbt.so (2013.1, Build901 2013/11/27)

>  <Rbt.Parameter_File>
/export/apps/rDock/src/rDock_2013.1_src/data/scripts/dock_solv.prm

>  <Rbt.Receptor>
prm/blind_docking_40.prm

>  <SCORE>
-38.9614

>  <SCORE.INTER>
-41.7061

>  <SCORE.INTER.CONST>
1

>  <SCORE.INTER.POLAR>
0

>  <SCORE.INTER.ROT>
5

>  <SCORE.INTER.SOLV>
9.17837

>  <SCORE.INTER.VDW>
-37.7968

>  <SCORE.INTER.norm>
-1.66824

>  <SCORE.INTRA>
2.74464

>  <SCORE.INTRA.DIHEDRAL>
11.8009

>  <SCORE.INTRA.DIHEDRAL.0>
2.1627

>  <SCORE.INTRA.POLAR>
0

>  <SCORE.INTRA.POLAR.0>
0

>  <SCORE.INTRA.REPUL>
0

>  <SCORE.INTRA.REPUL.0>
0

>  <SCORE.INTRA.SOLV>
0.00843516

>  <SCORE.INTRA.SOLV.lig_0>
-5.95779

>  <SCORE.INTRA.VDW>
-3.16001

>  <SCORE.INTRA.VDW.0>
3.81702

>  <SCORE.INTRA.norm>
0.109785

>  <SCORE.RESTR>
0

>  <SCORE.RESTR.CAVITY>
0

>  <SCORE.RESTR.norm>
0

>  <SCORE.SYSTEM>
0

>  <SCORE.SYSTEM.CONST>
0

>  <SCORE.SYSTEM.DIHEDRAL>
0

>  <SCORE.SYSTEM.SOLV>
0

>  <SCORE.SYSTEM.norm>
0

>  <SCORE.heavy>
25

>  <SCORE.norm>
-1.55846

>  <RMSD>
6.171

$$$$
1q8n_lig
 OpenBabel11021811403D
libRbt.so/2013.1/901 2013/11/27
 25 27  0  0  0  0  0  0  0  0999 V2000
    1.4459   -2.7542    1.5857 C   0  0  0  0  0  0  0  0  0  0  0  0
    1.8344   -3.6202    2.9141 C   0  0  0  0  0  0  0  0  0  0  0  0
    2.5467   -5.1513   -3.7494 N   0  0  0  0  0  0  0  0  0  0  0  0
    0.9189   -4.2417    3.6953 C   0  0  0  0  0  0  0  0  0  0  0  0
   -1.0332    2.6996    1.7371 N   0  0  0  0  0  0  0  0  0  0  0  0
    1.3133   -5.0135    4.8965 C   0  0  0  0  0  0  0  0  0  0  0  0
    2.6199   -5.1099    5.2335 C   0  0  0  0  0  0  0  0  0  0  0  0
    3.6131   -4.4604    4.4103 C   0  0  0  0  0  0  0  0  0  0  0  0
    3.2448   -3.7659    3.3309 C   0  0  0  0  0  0  0  0  0  0  0  0
    1.7475   -3.4062    0.1214 C   0  0  0  0  0  0  0  0  0  0  0  0
    2.1509   -2.6420   -0.9148 C   0  0  0  0  0  0  0  0  0  0  0  0
    2.4307   -3.2201   -2.2584 C   0  0  0  0  0  0  0  0  0  0  0  0
    2.2858   -4.5551   -2.4727 C   0  0  0  0  0  0  0  0  0  0  0  0
    1.8475   -5.4038   -1.3485 C   0  0  0  0  0  0  0  0  0  0  0  0
    1.5981   -4.8668   -0.1460 C   0  0  0  0  0  0  0  0  0  0  0  0
    0.7627   -1.2476    1.6956 C   0  0  0  0  0  0  0  0  0  0  0  0
    0.5926   -0.4120    0.4569 C   0  0  0  0  0  0  0  0  0  0  0  0
    0.0415    0.8047    0.4754 C   0  0  0  0  0  0  0  0  0  0  0  0
   -0.4337    1.3981    1.7307 C   0  0  0  0  0  0  0  0  0  0  0  0
   -0.2992    0.6923    2.8728 C   0  0  0  0  0  0  0  0  0  0  0  0
    0.3174   -0.6769    2.8640 C   0  0  0  0  0  0  0  0  0  0  0  0
    1.6501   -6.0905   -4.3515 C   0  0  0  0  0  0  0  0  0  0  0  0
    3.7350   -4.8149   -4.4706 C   0  0  0  0  0  0  0  0  0  0  0  0
   -1.7021    3.1841    2.9102 C   0  0  0  0  0  0  0  0  0  0  0  0
   -0.9770    3.5572    0.5748 C   0  0  0  0  0  0  0  0  0  0  0  0
  1  2  1  0  0  0  0
  1 10  1  0  0  0  0
  1 16  1  0  0  0  0
  2  4  2  0  0  0  0
  2  9  1  0  0  0  0
  4  6  1  0  0  0  0
  6  7  2  0  0  0  0
  7  8  1  0  0  0  0
  8  9  2  0  0  0  0
 10 11  2  0  0  0  0
 10 15  1  0  0  0  0
 11 12  1  0  0  0  0
 12 13  2  0  0  0  0
 13  3  1  0  0  0  0
 13 14  1  0  0  0  0
 14 15  2  0  0  0  0
 16 17  2  0  0  0  0
 16 21  1  0  0  0  0
 17 18  1  0  0  0  0
 18 19  2  0  0  0  0
 19  5  1  0  0  0  0
 19 20  1  0  0  0  0
 20 21  2  0  0  0  0
 22  3  1  0  0  0  0
 23  3  1  0  0  0  0
 24  5  1  0  0  0  0
 25  5  1  0  0  0  0
M  END
>  <CHROM.1>
-105.61160694,-143.89976089,171.77407601,-133.59341096,169.24053900,1.27267439
-2.32677790,0.80779640,-2.63926288,1.15165557,-1.52611111

>  <Name>
1q8n_lig

>  <RI>
0

>  <Rbt.Current_Directory>
/home/itssahil/PROJECTS/Mol_Feturizer/New_Systems/rnas/1q8n

>  <Rbt.Executable>
rbdock ($Id: //depot/dev/client3/rdock/2013.1/src/exe/rbdock.cxx#4 $)

>  <Rbt.Library>
libRbt.so (2013.1, Build901 2013/11/27)

>  <Rbt.Parameter_File>
/export/apps/rDock/src/rDock_2013.1_src/data/scripts/dock_solv.prm

>  <Rbt.Receptor>
prm/blind_docking_60.prm

>  <SCORE>
-43.7008

>  <SCORE.INTER>
-45.4003

>  <SCORE.INTER.CONST>
1

>  <SCORE.INTER.POLAR>
0

>  <SCORE.INTER.ROT>
5

>  <SCORE.INTER.SOLV>
9.53683

>  <SCORE.INTER.VDW>
-40.3791

>  <SCORE.INTER.norm>
-1.81601

>  <SCORE.INTRA>
1.69951

>  <SCORE.INTRA.DIHEDRAL>
7.15949

>  <SCORE.INTRA.DIHEDRAL.0>
2.1627

>  <SCORE.INTRA.POLAR>
0

>  <SCORE.INTRA.POLAR.0>
0

>  <SCORE.INTRA.REPUL>
0

>  <SCORE.INTRA.REPUL.0>
0

>  <SCORE.INTRA.SOLV>
0.00455879

>  <SCORE.INTRA.SOLV.lig_0>
-5.95779

>  <SCORE.INTRA.VDW>
-1.88251

>  <SCORE.INTRA.VDW.0>
3.81702

>  <SCORE.INTRA.norm>
0.0679806

>  <SCORE.RESTR>
0

>  <SCORE.RESTR.CAVITY>
0

>  <SCORE.RESTR.norm>
0

>  <SCORE.SYSTEM>
0

>  <SCORE.SYSTEM.CONST>
0

>  <SCORE.SYSTEM.DIHEDRAL>
0

>  <SCORE.SYSTEM.SOLV>
0

>  <SCORE.SYSTEM.norm>
0

>  <SCORE.heavy>
25

>  <SCORE.norm>
-1.74803

>  <RMSD>
6.187

$$$$
1q8n_lig
 OpenBabel11021811403D
libRbt.so/2013.1/901 2013/11/27
 25 27  0  0  0  0  0  0  0  0999 V2000
    1.1829   -1.9348   -0.4568 C   0  0  0  0  0  0  0  0  0  0  0  0
    1.6340   -3.2923   -1.2437 C   0  0  0  0  0  0  0  0  0  0  0  0
    0.5514    3.0656   -3.6222 N   0  0  0  0  0  0  0  0  0  0  0  0
    1.4807   -4.5378   -0.7338 C   0  0  0  0  0  0  0  0  0  0  0  0
    0.1834   -1.6563    5.4454 N   0  0  0  0  0  0  0  0  0  0  0  0
    1.9090   -5.7442   -1.4788 C   0  0  0  0  0  0  0  0  0  0  0  0
    2.4687   -5.6135   -2.7034 C   0  0  0  0  0  0  0  0  0  0  0  0
    2.6353   -4.2949   -3.2687 C   0  0  0  0  0  0  0  0  0  0  0  0
    2.2468   -3.2149   -2.5863 C   0  0  0  0  0  0  0  0  0  0  0  0
    1.0096   -0.5616   -1.3197 C   0  0  0  0  0  0  0  0  0  0  0  0
    1.1670    0.6494   -0.7461 C   0  0  0  0  0  0  0  0  0  0  0  0
    1.0125    1.9134   -1.5183 C   0  0  0  0  0  0  0  0  0  0  0  0
    0.7067    1.8731   -2.8428 C   0  0  0  0  0  0  0  0  0  0  0  0
    0.5337    0.5561   -3.4843 C   0  0  0  0  0  0  0  0  0  0  0  0
    0.6746   -0.5718   -2.7740 C   0  0  0  0  0  0  0  0  0  0  0  0
    0.9036   -1.9257    1.1773 C   0  0  0  0  0  0  0  0  0  0  0  0
    1.0410   -0.6440    1.9520 C   0  0  0  0  0  0  0  0  0  0  0  0
    0.8209   -0.5668    3.2673 C   0  0  0  0  0  0  0  0  0  0  0  0
    0.4274   -1.7530    4.0367 C   0  0  0  0  0  0  0  0  0  0  0  0
    0.2959   -2.9302    3.3906 C   0  0  0  0  0  0  0  0  0  0  0  0
    0.5392   -3.0287    1.9121 C   0  0  0  0  0  0  0  0  0  0  0  0
   -0.0256    3.0523   -4.9319 C   0  0  0  0  0  0  0  0  0  0  0  0
    0.9773    4.3267   -3.0993 C   0  0  0  0  0  0  0  0  0  0  0  0
   -0.7379   -2.5510    6.0849 C   0  0  0  0  0  0  0  0  0  0  0  0
    0.8564   -0.6676    6.2572 C   0  0  0  0  0  0  0  0  0  0  0  0
  1  2  1  0  0  0  0
  1 10  1  0  0  0  0
  1 16  1  0  0  0  0
  2  4  2  0  0  0  0
  2  9  1  0  0  0  0
  4  6  1  0  0  0  0
  6  7  2  0  0  0  0
  7  8  1  0  0  0  0
  8  9  2  0  0  0  0
 10 11  2  0  0  0  0
 10 15  1  0  0  0  0
 11 12  1  0  0  0  0
 12 13  2  0  0  0  0
 13  3  1  0  0  0  0
 13 14  1  0  0  0  0
 14 15  2  0  0  0  0
 16 17  2  0  0  0  0
 16 21  1  0  0  0  0
 17 18  1  0  0  0  0
 18 19  2  0  0  0  0
 19  5  1  0  0  0  0
 19 20  1  0  0  0  0
 20 21  2  0  0  0  0
 22  3  1  0  0  0  0
 23  3  1  0  0  0  0
 24  5  1  0  0  0  0
 25  5  1  0  0  0  0
M  END
>  <CHROM.1>
-162.32251220,-153.39067805,155.25313481,-167.20363024,151.51450070,0.95940126
-1.13705938,-0.09713695,-1.34693084,-1.33429113,2.22526027

>  <Name>
1q8n_lig

>  <RI>
0

>  <Rbt.Current_Directory>
/home/itssahil/PROJECTS/Mol_Feturizer/New_Systems/rnas/1q8n

>  <Rbt.Executable>
rbdock ($Id: //depot/dev/client3/rdock/2013.1/src/exe/rbdock.cxx#4 $)

>  <Rbt.Library>
libRbt.so (2013.1, Build901 2013/11/27)

>  <Rbt.Parameter_File>
/export/apps/rDock/src/rDock_2013.1_src/data/scripts/dock_solv.prm

>  <Rbt.Receptor>
prm/blind_docking_20.prm

>  <SCORE>
-35.6973

>  <SCORE.INTER>
-37.0521

>  <SCORE.INTER.CONST>
1

>  <SCORE.INTER.POLAR>
0

>  <SCORE.INTER.ROT>
5

>  <SCORE.INTER.SOLV>
8.21583

>  <SCORE.INTER.VDW>
-34.3734

>  <SCORE.INTER.norm>
-1.48208

>  <SCORE.INTRA>
1.35485

>  <SCORE.INTRA.DIHEDRAL>
3.53849

>  <SCORE.INTRA.DIHEDRAL.0>
2.1627

>  <SCORE.INTRA.POLAR>
0

>  <SCORE.INTRA.POLAR.0>
0

>  <SCORE.INTRA.REPUL>
0

>  <SCORE.INTRA.REPUL.0>
0

>  <SCORE.INTRA.SOLV>
0.052965

>  <SCORE.INTRA.SOLV.lig_0>
-5.95779

>  <SCORE.INTRA.VDW>
-0.440878

>  <SCORE.INTRA.VDW.0>
3.81702

>  <SCORE.INTRA.norm>
0.054194

>  <SCORE.RESTR>
0

>  <SCORE.RESTR.CAVITY>
0

>  <SCORE.RESTR.norm>
0

>  <SCORE.SYSTEM>
0

>  <SCORE.SYSTEM.CONST>
0

>  <SCORE.SYSTEM.DIHEDRAL>
0

>  <SCORE.SYSTEM.SOLV>
0

>  <SCORE.SYSTEM.norm>
0

>  <SCORE.heavy>
25

>  <SCORE.norm>
-1.42789

>  <RMSD>
6.218

$$$$
1q8n_lig
 OpenBabel11021811403D
libRbt.so/2013.1/901 2013/11/27
 25 27  0  0  0  0  0  0  0  0999 V2000
    1.3553   -2.5930    1.8704 C   0  0  0  0  0  0  0  0  0  0  0  0
    1.7686   -3.4051    3.2251 C   0  0  0  0  0  0  0  0  0  0  0  0
    2.3216   -5.2194   -3.3822 N   0  0  0  0  0  0  0  0  0  0  0  0
    2.9605   -4.0276    3.3891 C   0  0  0  0  0  0  0  0  0  0  0  0
   -1.0804    2.8824    1.8470 N   0  0  0  0  0  0  0  0  0  0  0  0
    3.2940   -4.7592    4.6331 C   0  0  0  0  0  0  0  0  0  0  0  0
    2.3939   -4.8142    5.6415 C   0  0  0  0  0  0  0  0  0  0  0  0
    1.1196   -4.1516    5.4900 C   0  0  0  0  0  0  0  0  0  0  0  0
    0.8300   -3.4968    4.3629 C   0  0  0  0  0  0  0  0  0  0  0  0
    1.6198   -3.3079    0.4285 C   0  0  0  0  0  0  0  0  0  0  0  0
    1.9537   -2.5843   -0.6601 C   0  0  0  0  0  0  0  0  0  0  0  0
    2.1987   -3.2200   -1.9844 C   0  0  0  0  0  0  0  0  0  0  0  0
    2.0921   -4.5683   -2.1264 C   0  0  0  0  0  0  0  0  0  0  0  0
    1.7299   -5.3730   -0.9443 C   0  0  0  0  0  0  0  0  0  0  0  0
    1.5109   -4.7843    0.2398 C   0  0  0  0  0  0  0  0  0  0  0  0
    0.6837   -1.0784    1.9320 C   0  0  0  0  0  0  0  0  0  0  0  0
    0.5260   -0.2788    0.6681 C   0  0  0  0  0  0  0  0  0  0  0  0
   -0.0154    0.9422    0.6476 C   0  0  0  0  0  0  0  0  0  0  0  0
   -0.4914    1.5765    1.8824 C   0  0  0  0  0  0  0  0  0  0  0  0
   -0.3678    0.9042    3.0457 C   0  0  0  0  0  0  0  0  0  0  0  0
    0.2378   -0.4694    3.0807 C   0  0  0  0  0  0  0  0  0  0  0  0
    1.6244   -6.4095   -3.7642 C   0  0  0  0  0  0  0  0  0  0  0  0
    3.2731   -4.6843   -4.3061 C   0  0  0  0  0  0  0  0  0  0  0  0
   -1.7974    3.3855    2.9833 C   0  0  0  0  0  0  0  0  0  0  0  0
   -0.9656    3.7258    0.6788 C   0  0  0  0  0  0  0  0  0  0  0  0
  1  2  1  0  0  0  0
  1 10  1  0  0  0  0
  1 16  1  0  0  0  0
  2  4  2  0  0  0  0
  2  9  1  0  0  0  0
  4  6  1  0  0  0  0
  6  7  2  0  0  0  0
  7  8  1  0  0  0  0
  8  9  2  0  0  0  0
 10 11  2  0  0  0  0
 10 15  1  0  0  0  0
 11 12  1  0  0  0  0
 12 13  2  0  0  0  0
 13  3  1  0  0  0  0
 13 14  1  0  0  0  0
 14 15  2  0  0  0  0
 16 17  2  0  0  0  0
 16 21  1  0  0  0  0
 17 18  1  0  0  0  0
 18 19  2  0  0  0  0
 19  5  1  0  0  0  0
 19 20  1  0  0  0  0
 20 21  2  0  0  0  0
 22  3  1  0  0  0  0
 23  3  1  0  0  0  0
 24  5  1  0  0  0  0
 25  5  1  0  0  0  0
M  END
>  <CHROM.1>
47.19751190,-146.50064627,170.06728306,-147.92821397,166.71329339,1.13303603
-2.19694699,1.08987886,-0.50533002,-1.17111927,1.59101488

>  <Name>
1q8n_lig

>  <RI>
0

>  <Rbt.Current_Directory>
/home/itssahil/PROJECTS/Mol_Feturizer/New_Systems/rnas/1q8n

>  <Rbt.Executable>
rbdock ($Id: //depot/dev/client3/rdock/2013.1/src/exe/rbdock.cxx#4 $)

>  <Rbt.Library>
libRbt.so (2013.1, Build901 2013/11/27)

>  <Rbt.Parameter_File>
/export/apps/rDock/src/rDock_2013.1_src/data/scripts/dock_solv.prm

>  <Rbt.Receptor>
prm/blind_docking_100.prm

>  <SCORE>
-42.1166

>  <SCORE.INTER>
-43.2503

>  <SCORE.INTER.CONST>
1

>  <SCORE.INTER.POLAR>
0

>  <SCORE.INTER.ROT>
5

>  <SCORE.INTER.SOLV>
9.08871

>  <SCORE.INTER.VDW>
-38.7964

>  <SCORE.INTER.norm>
-1.73001

>  <SCORE.INTRA>
1.12059

>  <SCORE.INTRA.DIHEDRAL>
4.2842

>  <SCORE.INTRA.DIHEDRAL.0>
2.1627

>  <SCORE.INTRA.POLAR>
0

>  <SCORE.INTRA.POLAR.0>
0

>  <SCORE.INTRA.REPUL>
0

>  <SCORE.INTRA.REPUL.0>
0

>  <SCORE.INTRA.SOLV>
0.0241479

>  <SCORE.INTRA.SOLV.lig_0>
-5.95779

>  <SCORE.INTRA.VDW>
-1.03358

>  <SCORE.INTRA.VDW.0>
3.81702

>  <SCORE.INTRA.norm>
0.0448235

>  <SCORE.RESTR>
0.0130448

>  <SCORE.RESTR.CAVITY>
0.0130448

>  <SCORE.RESTR.norm>
0.000521794

>  <SCORE.SYSTEM>
0

>  <SCORE.SYSTEM.CONST>
0

>  <SCORE.SYSTEM.DIHEDRAL>
0

>  <SCORE.SYSTEM.SOLV>
0

>  <SCORE.SYSTEM.norm>
0

>  <SCORE.heavy>
25

>  <SCORE.norm>
-1.68467

>  <RMSD>
6.234

$$$$
1q8n_lig
 OpenBabel11021811403D
libRbt.so/2013.1/901 2013/11/27
 25 27  0  0  0  0  0  0  0  0999 V2000
    1.9313   -3.3323   -1.8901 C   0  0  0  0  0  0  0  0  0  0  0  0
    1.5273   -4.2854   -0.6276 C   0  0  0  0  0  0  0  0  0  0  0  0
    0.4242    2.4222   -1.6999 N   0  0  0  0  0  0  0  0  0  0  0  0
    1.2504   -3.8092    0.6099 C   0  0  0  0  0  0  0  0  0  0  0  0
    5.0672   -5.3596   -6.5772 N   0  0  0  0  0  0  0  0  0  0  0  0
    0.8933   -4.7095    1.7305 C   0  0  0  0  0  0  0  0  0  0  0  0
    0.8369   -6.0456    1.5265 C   0  0  0  0  0  0  0  0  0  0  0  0
    1.1219   -6.5739    0.2129 C   0  0  0  0  0  0  0  0  0  0  0  0
    1.4446   -5.7521   -0.7889 C   0  0  0  0  0  0  0  0  0  0  0  0
    1.5142   -1.7565   -1.8347 C   0  0  0  0  0  0  0  0  0  0  0  0
    0.6767   -1.2877   -0.8864 C   0  0  0  0  0  0  0  0  0  0  0  0
    0.2850    0.1476   -0.8205 C   0  0  0  0  0  0  0  0  0  0  0  0
    0.7743    1.0329   -1.7295 C   0  0  0  0  0  0  0  0  0  0  0  0
    1.6930    0.5354   -2.7709 C   0  0  0  0  0  0  0  0  0  0  0  0
    2.0337   -0.7602   -2.8168 C   0  0  0  0  0  0  0  0  0  0  0  0
    2.7436   -3.9271   -3.2074 C   0  0  0  0  0  0  0  0  0  0  0  0
    4.1059   -3.3903   -3.5504 C   0  0  0  0  0  0  0  0  0  0  0  0
    4.8165   -3.8329   -4.5914 C   0  0  0  0  0  0  0  0  0  0  0  0
    4.2917   -4.8849   -5.4697 C   0  0  0  0  0  0  0  0  0  0  0  0
    3.0707   -5.3969   -5.2098 C   0  0  0  0  0  0  0  0  0  0  0  0
    2.2635   -4.9084   -4.0416 C   0  0  0  0  0  0  0  0  0  0  0  0
   -0.1579    3.0388   -0.5469 C   0  0  0  0  0  0  0  0  0  0  0  0
    0.6535    3.2459   -2.8463 C   0  0  0  0  0  0  0  0  0  0  0  0
    6.5004   -5.3647   -6.5098 C   0  0  0  0  0  0  0  0  0  0  0  0
    4.4346   -5.8485   -7.7815 C   0  0  0  0  0  0  0  0  0  0  0  0
  1  2  1  0  0  0  0
  1 10  1  0  0  0  0
  1 16  1  0  0  0  0
  2  4  2  0  0  0  0
  2  9  1  0  0  0  0
  4  6  1  0  0  0  0
  6  7  2  0  0  0  0
  7  8  1  0  0  0  0
  8  9  2  0  0  0  0
 10 11  2  0  0  0  0
 10 15  1  0  0  0  0
 11 12  1  0  0  0  0
 12 13  2  0  0  0  0
 13  3  1  0  0  0  0
 13 14  1  0  0  0  0
 14 15  2  0  0  0  0
 16 17  2  0  0  0  0
 16 21  1  0  0  0  0
 17 18  1  0  0  0  0
 18 19  2  0  0  0  0
 19  5  1  0  0  0  0
 19 20  1  0  0  0  0
 20 21  2  0  0  0  0
 22  3  1  0  0  0  0
 23  3  1  0  0  0  0
 24  5  1  0  0  0  0
 25  5  1  0  0  0  0
M  END
>  <CHROM.1>
-21.12489751,-10.51292169,-118.08548949,16.79342889,30.83208211,2.18811046
-2.78594738,-2.54048615,2.62913533,1.02944449,-0.39561583

>  <Name>
1q8n_lig

>  <RI>
0

>  <Rbt.Current_Directory>
/home/itssahil/PROJECTS/Mol_Feturizer/New_Systems/rnas/1q8n

>  <Rbt.Executable>
rbdock ($Id: //depot/dev/client3/rdock/2013.1/src/exe/rbdock.cxx#4 $)

>  <Rbt.Library>
libRbt.so (2013.1, Build901 2013/11/27)

>  <Rbt.Parameter_File>
/export/apps/rDock/src/rDock_2013.1_src/data/scripts/dock_solv.prm

>  <Rbt.Receptor>
prm/pocket_docking_5.prm

>  <SCORE>
-31.7644

>  <SCORE.INTER>
-33.1468

>  <SCORE.INTER.CONST>
1

>  <SCORE.INTER.POLAR>
0

>  <SCORE.INTER.ROT>
5

>  <SCORE.INTER.SOLV>
10.389

>  <SCORE.INTER.VDW>
-32.4942

>  <SCORE.INTER.norm>
-1.32587

>  <SCORE.INTRA>
1.15821

>  <SCORE.INTRA.DIHEDRAL>
4.42733

>  <SCORE.INTRA.DIHEDRAL.0>
2.1627

>  <SCORE.INTRA.POLAR>
0

>  <SCORE.INTRA.POLAR.0>
0

>  <SCORE.INTRA.REPUL>
0

>  <SCORE.INTRA.REPUL.0>
0

>  <SCORE.INTRA.SOLV>
0.0204035

>  <SCORE.INTRA.SOLV.lig_0>
-5.95779

>  <SCORE.INTRA.VDW>
-1.06566

>  <SCORE.INTRA.VDW.0>
3.81702

>  <SCORE.INTRA.norm>
0.0463285

>  <SCORE.RESTR>
0.224213

>  <SCORE.RESTR.CAVITY>
0.224213

>  <SCORE.RESTR.norm>
0.00896852

>  <SCORE.SYSTEM>
0

>  <SCORE.SYSTEM.CONST>
0

>  <SCORE.SYSTEM.DIHEDRAL>
0

>  <SCORE.SYSTEM.SOLV>
0

>  <SCORE.SYSTEM.norm>
0

>  <SCORE.heavy>
25

>  <SCORE.norm>
-1.27058

>  <RMSD>
6.354

$$$$
1q8n_lig
 OpenBabel11021811403D
libRbt.so/2013.1/901 2013/11/27
 25 27  0  0  0  0  0  0  0  0999 V2000
    1.7330   -2.7179   -1.0367 C   0  0  0  0  0  0  0  0  0  0  0  0
    2.0507   -3.8856   -2.1326 C   0  0  0  0  0  0  0  0  0  0  0  0
    1.5480   -4.2026    4.7238 N   0  0  0  0  0  0  0  0  0  0  0  0
    1.8825   -5.2071   -1.8868 C   0  0  0  0  0  0  0  0  0  0  0  0
    0.7906    3.0308   -2.4427 N   0  0  0  0  0  0  0  0  0  0  0  0
    2.1884   -6.2357   -2.9078 C   0  0  0  0  0  0  0  0  0  0  0  0
    2.6473   -5.8595   -4.1234 C   0  0  0  0  0  0  0  0  0  0  0  0
    2.8275   -4.4552   -4.4087 C   0  0  0  0  0  0  0  0  0  0  0  0
    2.5500   -3.5374   -3.4792 C   0  0  0  0  0  0  0  0  0  0  0  0
    1.6843   -3.1296    0.5407 C   0  0  0  0  0  0  0  0  0  0  0  0
    2.3586   -4.2022    1.0047 C   0  0  0  0  0  0  0  0  0  0  0  0
    2.3256   -4.5929    2.4414 C   0  0  0  0  0  0  0  0  0  0  0  0
    1.6044   -3.8619    3.3329 C   0  0  0  0  0  0  0  0  0  0  0  0
    0.8636   -2.6851    2.8407 C   0  0  0  0  0  0  0  0  0  0  0  0
    0.9028   -2.3486    1.5439 C   0  0  0  0  0  0  0  0  0  0  0  0
    1.4618   -1.1464   -1.4902 C   0  0  0  0  0  0  0  0  0  0  0  0
    1.3209   -0.0792   -0.4401 C   0  0  0  0  0  0  0  0  0  0  0  0
    1.1112    1.2058   -0.7386 C   0  0  0  0  0  0  0  0  0  0  0  0
    1.0048    1.6481   -2.1339 C   0  0  0  0  0  0  0  0  0  0  0  0
    1.1179    0.7291   -3.1153 C   0  0  0  0  0  0  0  0  0  0  0  0
    1.3552   -0.7179   -2.7919 C   0  0  0  0  0  0  0  0  0  0  0  0
    2.4979   -5.0823    5.3338 C   0  0  0  0  0  0  0  0  0  0  0  0
    0.5194   -3.6594    5.5558 C   0  0  0  0  0  0  0  0  0  0  0  0
    0.5814    3.9847   -1.3916 C   0  0  0  0  0  0  0  0  0  0  0  0
    0.7850    3.5023   -3.8091 C   0  0  0  0  0  0  0  0  0  0  0  0
  1  2  1  0  0  0  0
  1 10  1  0  0  0  0
  1 16  1  0  0  0  0
  2  4  2  0  0  0  0
  2  9  1  0  0  0  0
  4  6  1  0  0  0  0
  6  7  2  0  0  0  0
  7  8  1  0  0  0  0
  8  9  2  0  0  0  0
 10 11  2  0  0  0  0
 10 15  1  0  0  0  0
 11 12  1  0  0  0  0
 12 13  2  0  0  0  0
 13  3  1  0  0  0  0
 13 14  1  0  0  0  0
 14 15  2  0  0  0  0
 16 17  2  0  0  0  0
 16 21  1  0  0  0  0
 17 18  1  0  0  0  0
 18 19  2  0  0  0  0
 19  5  1  0  0  0  0
 19 20  1  0  0  0  0
 20 21  2  0  0  0  0
 22  3  1  0  0  0  0
 23  3  1  0  0  0  0
 24  5  1  0  0  0  0
 25  5  1  0  0  0  0
M  END
>  <CHROM.1>
20.59040010,25.23552313,-173.40056448,17.17523555,-4.50530168,1.57440529
-2.08735813,-0.38650881,-1.21750005,1.34657460,-1.11967313

>  <Name>
1q8n_lig

>  <RI>
0

>  <Rbt.Current_Directory>
/home/itssahil/PROJECTS/Mol_Feturizer/New_Systems/rnas/1q8n

>  <Rbt.Executable>
rbdock ($Id: //depot/dev/client3/rdock/2013.1/src/exe/rbdock.cxx#4 $)

>  <Rbt.Library>
libRbt.so (2013.1, Build901 2013/11/27)

>  <Rbt.Parameter_File>
/export/apps/rDock/src/rDock_2013.1_src/data/scripts/dock_solv.prm

>  <Rbt.Receptor>
prm/blind_docking_80.prm

>  <SCORE>
-43.5436

>  <SCORE.INTER>
-44.7797

>  <SCORE.INTER.CONST>
1

>  <SCORE.INTER.POLAR>
0

>  <SCORE.INTER.ROT>
5

>  <SCORE.INTER.SOLV>
9.65904

>  <SCORE.INTER.VDW>
-40.0061

>  <SCORE.INTER.norm>
-1.79119

>  <SCORE.INTRA>
0.951478

>  <SCORE.INTRA.DIHEDRAL>
1.19293

>  <SCORE.INTRA.DIHEDRAL.0>
2.1627

>  <SCORE.INTRA.POLAR>
0

>  <SCORE.INTRA.POLAR.0>
0

>  <SCORE.INTRA.REPUL>
0

>  <SCORE.INTRA.REPUL.0>
0

>  <SCORE.INTRA.SOLV>
0.0574894

>  <SCORE.INTRA.SOLV.lig_0>
-5.95779

>  <SCORE.INTRA.VDW>
0.32627

>  <SCORE.INTRA.VDW.0>
3.81702

>  <SCORE.INTRA.norm>
0.0380591

>  <SCORE.RESTR>
0.284624

>  <SCORE.RESTR.CAVITY>
0.284624

>  <SCORE.RESTR.norm>
0.011385

>  <SCORE.SYSTEM>
0

>  <SCORE.SYSTEM.CONST>
0

>  <SCORE.SYSTEM.DIHEDRAL>
0

>  <SCORE.SYSTEM.SOLV>
0

>  <SCORE.SYSTEM.norm>
0

>  <SCORE.heavy>
25

>  <SCORE.norm>
-1.74174

>  <RMSD>
6.413

$$$$
1q8n_lig
 OpenBabel11021811403D
libRbt.so/2013.1/901 2013/11/27
 25 27  0  0  0  0  0  0  0  0999 V2000
    1.9038   -2.6612   -1.0338 C   0  0  0  0  0  0  0  0  0  0  0  0
    2.3307   -3.7958   -2.1275 C   0  0  0  0  0  0  0  0  0  0  0  0
    1.5176   -4.2377    4.6922 N   0  0  0  0  0  0  0  0  0  0  0  0
    3.0803   -3.5320   -3.2245 C   0  0  0  0  0  0  0  0  0  0  0  0
    0.7699    3.0588   -2.4154 N   0  0  0  0  0  0  0  0  0  0  0  0
    3.4409   -4.5902   -4.1960 C   0  0  0  0  0  0  0  0  0  0  0  0
    3.0183   -5.8594   -3.9941 C   0  0  0  0  0  0  0  0  0  0  0  0
    2.2236   -6.1638   -2.8272 C   0  0  0  0  0  0  0  0  0  0  0  0
    1.9035   -5.2005   -1.9595 C   0  0  0  0  0  0  0  0  0  0  0  0
    1.7993   -3.0983    0.5340 C   0  0  0  0  0  0  0  0  0  0  0  0
    2.3108   -4.2684    0.9695 C   0  0  0  0  0  0  0  0  0  0  0  0
    2.2245   -4.6837    2.3970 C   0  0  0  0  0  0  0  0  0  0  0  0
    1.6198   -3.8765    3.3092 C   0  0  0  0  0  0  0  0  0  0  0  0
    1.0577   -2.5929    2.8483 C   0  0  0  0  0  0  0  0  0  0  0  0
    1.1425   -2.2354    1.5592 C   0  0  0  0  0  0  0  0  0  0  0  0
    1.5784   -1.0980   -1.4803 C   0  0  0  0  0  0  0  0  0  0  0  0
    1.4379   -0.0338   -0.4270 C   0  0  0  0  0  0  0  0  0  0  0  0
    1.1859    1.2448   -0.7201 C   0  0  0  0  0  0  0  0  0  0  0  0
    1.0294    1.6825   -2.1121 C   0  0  0  0  0  0  0  0  0  0  0  0
    1.1401    0.7659   -3.0960 C   0  0  0  0  0  0  0  0  0  0  0  0
    1.4247   -0.6740   -2.7787 C   0  0  0  0  0  0  0  0  0  0  0  0
    2.4132   -5.1701    5.3063 C   0  0  0  0  0  0  0  0  0  0  0  0
    0.4965   -3.6626    5.5118 C   0  0  0  0  0  0  0  0  0  0  0  0
    0.5258    4.0003   -1.3607 C   0  0  0  0  0  0  0  0  0  0  0  0
    0.7526    3.5360   -3.7797 C   0  0  0  0  0  0  0  0  0  0  0  0
  1  2  1  0  0  0  0
  1 10  1  0  0  0  0
  1 16  1  0  0  0  0
  2  4  2  0  0  0  0
  2  9  1  0  0  0  0
  4  6  1  0  0  0  0
  6  7  2  0  0  0  0
  7  8  1  0  0  0  0
  8  9  2  0  0  0  0
 10 11  2  0  0  0  0
 10 15  1  0  0  0  0
 11 12  1  0  0  0  0
 12 13  2  0  0  0  0
 13  3  1  0  0  0  0
 13 14  1  0  0  0  0
 14 15  2  0  0  0  0
 16 17  2  0  0  0  0
 16 21  1  0  0  0  0
 17 18  1  0  0  0  0
 18 19  2  0  0  0  0
 19  5  1  0  0  0  0
 19 20  1  0  0  0  0
 20 21  2  0  0  0  0
 22  3  1  0  0  0  0
 23  3  1  0  0  0  0
 24  5  1  0  0  0  0
 25  5  1  0  0  0  0
M  END
>  <CHROM.1>
-145.41140080,13.64793696,-168.78856013,23.16313199,-6.32003649,1.67439175
-2.07404150,-0.36273984,-1.26181960,1.30361470,-1.03704335

>  <Name>
1q8n_lig

>  <RI>
0

>  <Rbt.Current_Directory>
/home/itssahil/PROJECTS/Mol_Feturizer/New_Systems/rnas/1q8n

>  <Rbt.Executable>
rbdock ($Id: //depot/dev/client3/rdock/2013.1/src/exe/rbdock.cxx#4 $)

>  <Rbt.Library>
libRbt.so (2013.1, Build901 2013/11/27)

>  <Rbt.Parameter_File>
/export/apps/rDock/src/rDock_2013.1_src/data/scripts/dock_solv.prm

>  <Rbt.Receptor>
prm/blind_docking_80.prm

>  <SCORE>
-43.5045

>  <SCORE.INTER>
-44.9286

>  <SCORE.INTER.CONST>
1

>  <SCORE.INTER.POLAR>
0

>  <SCORE.INTER.ROT>
5

>  <SCORE.INTER.SOLV>
9.8789

>  <SCORE.INTER.VDW>
-40.1787

>  <SCORE.INTER.norm>
-1.79714

>  <SCORE.INTRA>
1.08083

>  <SCORE.INTRA.DIHEDRAL>
2.1344

>  <SCORE.INTRA.DIHEDRAL.0>
2.1627

>  <SCORE.INTRA.POLAR>
0

>  <SCORE.INTRA.POLAR.0>
0

>  <SCORE.INTRA.REPUL>
0

>  <SCORE.INTRA.REPUL.0>
0

>  <SCORE.INTRA.SOLV>
0.0513735

>  <SCORE.INTRA.SOLV.lig_0>
-5.95779

>  <SCORE.INTRA.VDW>
-0.0120533

>  <SCORE.INTRA.VDW.0>
3.81702

>  <SCORE.INTRA.norm>
0.0432333

>  <SCORE.RESTR>
0.343278

>  <SCORE.RESTR.CAVITY>
0.343278

>  <SCORE.RESTR.norm>
0.0137311

>  <SCORE.SYSTEM>
0

>  <SCORE.SYSTEM.CONST>
0

>  <SCORE.SYSTEM.DIHEDRAL>
0

>  <SCORE.SYSTEM.SOLV>
0

>  <SCORE.SYSTEM.norm>
0

>  <SCORE.heavy>
25

>  <SCORE.norm>
-1.74018

>  <RMSD>
6.421

$$$$
1q8n_lig
 OpenBabel11021811403D
libRbt.so/2013.1/901 2013/11/27
 25 27  0  0  0  0  0  0  0  0999 V2000
    2.6741   -3.1526   -2.5491 C   0  0  0  0  0  0  0  0  0  0  0  0
    2.1035   -4.5548   -1.9377 C   0  0  0  0  0  0  0  0  0  0  0  0
    7.1044   -3.3778   -6.5169 N   0  0  0  0  0  0  0  0  0  0  0  0
    1.8240   -4.7391   -0.6252 C   0  0  0  0  0  0  0  0  0  0  0  0
    0.4269    2.0729   -0.6634 N   0  0  0  0  0  0  0  0  0  0  0  0
    1.3128   -6.0302   -0.1100 C   0  0  0  0  0  0  0  0  0  0  0  0
    1.1134   -7.0616   -0.9624 C   0  0  0  0  0  0  0  0  0  0  0  0
    1.3986   -6.8844   -2.3671 C   0  0  0  0  0  0  0  0  0  0  0  0
    1.8610   -5.7160   -2.8191 C   0  0  0  0  0  0  0  0  0  0  0  0
    3.8881   -3.2198   -3.6364 C   0  0  0  0  0  0  0  0  0  0  0  0
    4.1752   -4.3621   -4.2944 C   0  0  0  0  0  0  0  0  0  0  0  0
    5.2797   -4.4417   -5.2902 C   0  0  0  0  0  0  0  0  0  0  0  0
    6.0342   -3.3441   -5.5645 C   0  0  0  0  0  0  0  0  0  0  0  0
    5.7306   -2.0872   -4.8544 C   0  0  0  0  0  0  0  0  0  0  0  0
    4.7340   -2.0336   -3.9597 C   0  0  0  0  0  0  0  0  0  0  0  0
    2.0535   -1.6849   -2.0918 C   0  0  0  0  0  0  0  0  0  0  0  0
    1.5417   -1.4936   -0.6907 C   0  0  0  0  0  0  0  0  0  0  0  0
    1.0388   -0.3348   -0.2564 C   0  0  0  0  0  0  0  0  0  0  0  0
    0.9583    0.8317   -1.1432 C   0  0  0  0  0  0  0  0  0  0  0  0
    1.3985    0.7120   -2.4130 C   0  0  0  0  0  0  0  0  0  0  0  0
    1.9673   -0.5852   -2.9119 C   0  0  0  0  0  0  0  0  0  0  0  0
    8.0509   -4.4504   -6.5647 C   0  0  0  0  0  0  0  0  0  0  0  0
    7.2566   -2.3181   -7.4651 C   0  0  0  0  0  0  0  0  0  0  0  0
    0.5174    3.2590   -1.4655 C   0  0  0  0  0  0  0  0  0  0  0  0
   -0.2155    2.1647    0.6283 C   0  0  0  0  0  0  0  0  0  0  0  0
  1  2  1  0  0  0  0
  1 10  1  0  0  0  0
  1 16  1  0  0  0  0
  2  4  2  0  0  0  0
  2  9  1  0  0  0  0
  4  6  1  0  0  0  0
  6  7  2  0  0  0  0
  7  8  1  0  0  0  0
  8  9  2  0  0  0  0
 10 11  2  0  0  0  0
 10 15  1  0  0  0  0
 11 12  1  0  0  0  0
 12 13  2  0  0  0  0
 13  3  1  0  0  0  0
 13 14  1  0  0  0  0
 14 15  2  0  0  0  0
 16 17  2  0  0  0  0
 16 21  1  0  0  0  0
 17 18  1  0  0  0  0
 18 19  2  0  0  0  0
 19  5  1  0  0  0  0
 19 20  1  0  0  0  0
 20 21  2  0  0  0  0
 22  3  1  0  0  0  0
 23  3  1  0  0  0  0
 24  5  1  0  0  0  0
 25  5  1  0  0  0  0
M  END
>  <CHROM.1>
136.45040548,17.98159042,32.81598473,-44.26336153,171.34158067,2.99606912
-2.45083620,-2.84661922,0.53734226,-0.75923682,3.09158114

>  <Name>
1q8n_lig

>  <RI>
0

>  <Rbt.Current_Directory>
/home/itssahil/PROJECTS/Mol_Feturizer/New_Systems/rnas/1q8n

>  <Rbt.Executable>
rbdock ($Id: //depot/dev/client3/rdock/2013.1/src/exe/rbdock.cxx#4 $)

>  <Rbt.Library>
libRbt.so (2013.1, Build901 2013/11/27)

>  <Rbt.Parameter_File>
/export/apps/rDock/src/rDock_2013.1_src/data/scripts/dock_solv.prm

>  <Rbt.Receptor>
prm/blind_docking_80.prm

>  <SCORE>
-26.5243

>  <SCORE.INTER>
-28.4379

>  <SCORE.INTER.CONST>
1

>  <SCORE.INTER.POLAR>
0

>  <SCORE.INTER.ROT>
5

>  <SCORE.INTER.SOLV>
10.2598

>  <SCORE.INTER.VDW>
-29.3119

>  <SCORE.INTER.norm>
-1.13752

>  <SCORE.INTRA>
1.72038

>  <SCORE.INTRA.DIHEDRAL>
6.52036

>  <SCORE.INTRA.DIHEDRAL.0>
2.1627

>  <SCORE.INTRA.POLAR>
0

>  <SCORE.INTRA.POLAR.0>
0

>  <SCORE.INTRA.REPUL>
0

>  <SCORE.INTRA.REPUL.0>
0

>  <SCORE.INTRA.SOLV>
0.0307301

>  <SCORE.INTRA.SOLV.lig_0>
-5.95779

>  <SCORE.INTRA.VDW>
-1.55517

>  <SCORE.INTRA.VDW.0>
3.81702

>  <SCORE.INTRA.norm>
0.0688151

>  <SCORE.RESTR>
0.193237

>  <SCORE.RESTR.CAVITY>
0.193237

>  <SCORE.RESTR.norm>
0.00772946

>  <SCORE.SYSTEM>
0

>  <SCORE.SYSTEM.CONST>
0

>  <SCORE.SYSTEM.DIHEDRAL>
0

>  <SCORE.SYSTEM.SOLV>
0

>  <SCORE.SYSTEM.norm>
0

>  <SCORE.heavy>
25

>  <SCORE.norm>
-1.06097

>  <RMSD>
6.423

$$$$
1q8n_lig
 OpenBabel11021811403D
libRbt.so/2013.1/901 2013/11/27
 25 27  0  0  0  0  0  0  0  0999 V2000
    1.8614   -2.6638   -1.0078 C   0  0  0  0  0  0  0  0  0  0  0  0
    2.2853   -3.8026   -2.0982 C   0  0  0  0  0  0  0  0  0  0  0  0
    1.4541   -4.2275    4.7203 N   0  0  0  0  0  0  0  0  0  0  0  0
    3.0202   -3.5404   -3.2055 C   0  0  0  0  0  0  0  0  0  0  0  0
    0.7602    3.0590   -2.4039 N   0  0  0  0  0  0  0  0  0  0  0  0
    3.3786   -4.6025   -4.1737 C   0  0  0  0  0  0  0  0  0  0  0  0
    2.9688   -5.8736   -3.9581 C   0  0  0  0  0  0  0  0  0  0  0  0
    2.1898   -6.1762   -2.7802 C   0  0  0  0  0  0  0  0  0  0  0  0
    1.8716   -5.2095   -1.9157 C   0  0  0  0  0  0  0  0  0  0  0  0
    1.7516   -3.0973    0.5608 C   0  0  0  0  0  0  0  0  0  0  0  0
    2.3614   -4.2083    1.0237 C   0  0  0  0  0  0  0  0  0  0  0  0
    2.2720   -4.6193    2.4523 C   0  0  0  0  0  0  0  0  0  0  0  0
    1.5633   -3.8684    3.3373 C   0  0  0  0  0  0  0  0  0  0  0  0
    0.8929   -2.6496    2.8462 C   0  0  0  0  0  0  0  0  0  0  0  0
    0.9822   -2.2952    1.5566 C   0  0  0  0  0  0  0  0  0  0  0  0
    1.5442   -1.1001   -1.4580 C   0  0  0  0  0  0  0  0  0  0  0  0
    1.4241   -0.0298   -0.4083 C   0  0  0  0  0  0  0  0  0  0  0  0
    1.1796    1.2495   -0.7047 C   0  0  0  0  0  0  0  0  0  0  0  0
    1.0116    1.6821   -2.0969 C   0  0  0  0  0  0  0  0  0  0  0  0
    1.1037    0.7600   -3.0776 C   0  0  0  0  0  0  0  0  0  0  0  0
    1.3798   -0.6807   -2.7566 C   0  0  0  0  0  0  0  0  0  0  0  0
    2.2690   -5.2445    5.3120 C   0  0  0  0  0  0  0  0  0  0  0  0
    0.5082   -3.5638    5.5629 C   0  0  0  0  0  0  0  0  0  0  0  0
    0.7055    3.4996   -3.7681 C   0  0  0  0  0  0  0  0  0  0  0  0
    0.5504    4.0346   -1.3581 C   0  0  0  0  0  0  0  0  0  0  0  0
  1  2  1  0  0  0  0
  1 10  1  0  0  0  0
  1 16  1  0  0  0  0
  2  4  2  0  0  0  0
  2  9  1  0  0  0  0
  4  6  1  0  0  0  0
  6  7  2  0  0  0  0
  7  8  1  0  0  0  0
  8  9  2  0  0  0  0
 10 11  2  0  0  0  0
 10 15  1  0  0  0  0
 11 12  1  0  0  0  0
 12 13  2  0  0  0  0
 13  3  1  0  0  0  0
 13 14  1  0  0  0  0
 14 15  2  0  0  0  0
 16 17  2  0  0  0  0
 16 21  1  0  0  0  0
 17 18  1  0  0  0  0
 18 19  2  0  0  0  0
 19  5  1  0  0  0  0
 19 20  1  0  0  0  0
 20 21  2  0  0  0  0
 22  3  1  0  0  0  0
 23  3  1  0  0  0  0
 24  5  1  0  0  0  0
 25  5  1  0  0  0  0
M  END
>  <CHROM.1>
-146.51139069,19.76909545,-167.99881572,11.70816946,174.86253033,1.63293976
-2.07474202,-0.33869570,-1.27626137,1.30488114,-1.02507711

>  <Name>
1q8n_lig

>  <RI>
0

>  <Rbt.Current_Directory>
/home/itssahil/PROJECTS/Mol_Feturizer/New_Systems/rnas/1q8n

>  <Rbt.Executable>
rbdock ($Id: //depot/dev/client3/rdock/2013.1/src/exe/rbdock.cxx#4 $)

>  <Rbt.Library>
libRbt.so (2013.1, Build901 2013/11/27)

>  <Rbt.Parameter_File>
/export/apps/rDock/src/rDock_2013.1_src/data/scripts/dock_solv.prm

>  <Rbt.Receptor>
prm/blind_docking_60.prm

>  <SCORE>
-44.0437

>  <SCORE.INTER>
-44.7549

>  <SCORE.INTER.CONST>
1

>  <SCORE.INTER.POLAR>
0

>  <SCORE.INTER.ROT>
5

>  <SCORE.INTER.SOLV>
9.83041

>  <SCORE.INTER.VDW>
-40.0467

>  <SCORE.INTER.norm>
-1.79019

>  <SCORE.INTRA>
0.711133

>  <SCORE.INTRA.DIHEDRAL>
0.62803

>  <SCORE.INTRA.DIHEDRAL.0>
2.1627

>  <SCORE.INTRA.POLAR>
0

>  <SCORE.INTRA.POLAR.0>
0

>  <SCORE.INTRA.REPUL>
0

>  <SCORE.INTRA.REPUL.0>
0

>  <SCORE.INTRA.SOLV>
0.0478947

>  <SCORE.INTRA.SOLV.lig_0>
-5.95779

>  <SCORE.INTRA.VDW>
0.373171

>  <SCORE.INTRA.VDW.0>
3.81702

>  <SCORE.INTRA.norm>
0.0284453

>  <SCORE.RESTR>
0

>  <SCORE.RESTR.CAVITY>
0

>  <SCORE.RESTR.norm>
0

>  <SCORE.SYSTEM>
0

>  <SCORE.SYSTEM.CONST>
0

>  <SCORE.SYSTEM.DIHEDRAL>
0

>  <SCORE.SYSTEM.SOLV>
0

>  <SCORE.SYSTEM.norm>
0

>  <SCORE.heavy>
25

>  <SCORE.norm>
-1.76175

>  <RMSD>
6.427

$$$$
1q8n_lig
 OpenBabel11021811403D
libRbt.so/2013.1/901 2013/11/27
 25 27  0  0  0  0  0  0  0  0999 V2000
    1.7067   -2.5812   -0.8157 C   0  0  0  0  0  0  0  0  0  0  0  0
    2.0110   -3.7097   -1.9557 C   0  0  0  0  0  0  0  0  0  0  0  0
    1.5036   -4.2843    4.8834 N   0  0  0  0  0  0  0  0  0  0  0  0
    2.4472   -3.4131   -3.2033 C   0  0  0  0  0  0  0  0  0  0  0  0
    0.7485    3.0990   -2.4679 N   0  0  0  0  0  0  0  0  0  0  0  0
    2.7059   -4.4677   -4.2107 C   0  0  0  0  0  0  0  0  0  0  0  0
    2.5069   -5.7666   -3.8892 C   0  0  0  0  0  0  0  0  0  0  0  0
    2.0485   -6.1053   -2.5622 C   0  0  0  0  0  0  0  0  0  0  0  0
    1.8170   -5.1453   -1.6634 C   0  0  0  0  0  0  0  0  0  0  0  0
    1.6538   -3.0525    0.7449 C   0  0  0  0  0  0  0  0  0  0  0  0
    2.4482   -4.0416    1.2041 C   0  0  0  0  0  0  0  0  0  0  0  0
    2.4133   -4.4848    2.6254 C   0  0  0  0  0  0  0  0  0  0  0  0
    1.5666   -3.8892    3.5073 C   0  0  0  0  0  0  0  0  0  0  0  0
    0.6935   -2.8046    3.0203 C   0  0  0  0  0  0  0  0  0  0  0  0
    0.7364   -2.4193    1.7372 C   0  0  0  0  0  0  0  0  0  0  0  0
    1.4532   -0.9906   -1.2085 C   0  0  0  0  0  0  0  0  0  0  0  0
    1.3270   -0.5882   -2.6521 C   0  0  0  0  0  0  0  0  0  0  0  0
    1.1128    0.6735   -3.0350 C   0  0  0  0  0  0  0  0  0  0  0  0
    0.9889    1.7508   -2.0461 C   0  0  0  0  0  0  0  0  0  0  0  0
    1.1006    1.4446   -0.7369 C   0  0  0  0  0  0  0  0  0  0  0  0
    1.3397    0.0297   -0.2944 C   0  0  0  0  0  0  0  0  0  0  0  0
    2.4148   -5.2324    5.4484 C   0  0  0  0  0  0  0  0  0  0  0  0
    0.5075   -3.7284    5.7460 C   0  0  0  0  0  0  0  0  0  0  0  0
    0.6505    3.4156   -3.8638 C   0  0  0  0  0  0  0  0  0  0  0  0
    0.5930    4.1688   -1.5084 C   0  0  0  0  0  0  0  0  0  0  0  0
  1  2  1  0  0  0  0
  1 10  1  0  0  0  0
  1 16  1  0  0  0  0
  2  4  2  0  0  0  0
  2  9  1  0  0  0  0
  4  6  1  0  0  0  0
  6  7  2  0  0  0  0
  7  8  1  0  0  0  0
  8  9  2  0  0  0  0
 10 11  2  0  0  0  0
 10 15  1  0  0  0  0
 11 12  1  0  0  0  0
 12 13  2  0  0  0  0
 13  3  1  0  0  0  0
 13 14  1  0  0  0  0
 14 15  2  0  0  0  0
 16 17  2  0  0  0  0
 16 21  1  0  0  0  0
 17 18  1  0  0  0  0
 18 19  2  0  0  0  0
 19  5  1  0  0  0  0
 19 20  1  0  0  0  0
 20 21  2  0  0  0  0
 22  3  1  0  0  0  0
 23  3  1  0  0  0  0
 24  5  1  0  0  0  0
 25  5  1  0  0  0  0
M  END
>  <CHROM.1>
-160.77580319,33.91657899,7.77146481,6.38789894,-1.14721467,1.52524772,-2.03514701
-0.23782888,-1.21831229,1.35015470,-1.11855357

>  <Name>
1q8n_lig

>  <RI>
0

>  <Rbt.Current_Directory>
/home/itssahil/PROJECTS/Mol_Feturizer/New_Systems/rnas/1q8n

>  <Rbt.Executable>
rbdock ($Id: //depot/dev/client3/rdock/2013.1/src/exe/rbdock.cxx#4 $)

>  <Rbt.Library>
libRbt.so (2013.1, Build901 2013/11/27)

>  <Rbt.Parameter_File>
/export/apps/rDock/src/rDock_2013.1_src/data/scripts/dock_solv.prm

>  <Rbt.Receptor>
prm/blind_docking_80.prm

>  <SCORE>
-43.0524

>  <SCORE.INTER>
-44.067

>  <SCORE.INTER.CONST>
1

>  <SCORE.INTER.POLAR>
0

>  <SCORE.INTER.ROT>
5

>  <SCORE.INTER.SOLV>
9.49121

>  <SCORE.INTER.VDW>
-39.475

>  <SCORE.INTER.norm>
-1.76268

>  <SCORE.INTRA>
0.539813

>  <SCORE.INTRA.DIHEDRAL>
0.159848

>  <SCORE.INTRA.DIHEDRAL.0>
2.1627

>  <SCORE.INTRA.POLAR>
0

>  <SCORE.INTRA.POLAR.0>
0

>  <SCORE.INTRA.REPUL>
0

>  <SCORE.INTRA.REPUL.0>
0

>  <SCORE.INTRA.SOLV>
0.0491867

>  <SCORE.INTRA.SOLV.lig_0>
-5.95779

>  <SCORE.INTRA.VDW>
0.435296

>  <SCORE.INTRA.VDW.0>
3.81702

>  <SCORE.INTRA.norm>
0.0215925

>  <SCORE.RESTR>
0.474748

>  <SCORE.RESTR.CAVITY>
0.474748

>  <SCORE.RESTR.norm>
0.0189899

>  <SCORE.SYSTEM>
0

>  <SCORE.SYSTEM.CONST>
0

>  <SCORE.SYSTEM.DIHEDRAL>
0

>  <SCORE.SYSTEM.SOLV>
0

>  <SCORE.SYSTEM.norm>
0

>  <SCORE.heavy>
25

>  <SCORE.norm>
-1.7221

>  <RMSD>
6.428

$$$$
1q8n_lig
 OpenBabel11021811413D
libRbt.so/2013.1/901 2013/11/27
 25 27  0  0  0  0  0  0  0  0999 V2000
    1.5481   -2.0995   -0.5127 C   0  0  0  0  0  0  0  0  0  0  0  0
    2.0686   -3.2463   -1.5517 C   0  0  0  0  0  0  0  0  0  0  0  0
    0.8734    3.4610   -2.5243 N   0  0  0  0  0  0  0  0  0  0  0  0
    1.7979   -4.5655   -1.4057 C   0  0  0  0  0  0  0  0  0  0  0  0
    0.2145   -3.1368    5.2369 N   0  0  0  0  0  0  0  0  0  0  0  0
    2.2947   -5.5752   -2.3689 C   0  0  0  0  0  0  0  0  0  0  0  0
    3.0388   -5.1833   -3.4285 C   0  0  0  0  0  0  0  0  0  0  0  0
    3.3334   -3.7807   -3.6067 C   0  0  0  0  0  0  0  0  0  0  0  0
    2.8814   -2.8802   -2.7303 C   0  0  0  0  0  0  0  0  0  0  0  0
    1.3654   -0.5771   -1.0687 C   0  0  0  0  0  0  0  0  0  0  0  0
    1.4720   -0.2954   -2.3839 C   0  0  0  0  0  0  0  0  0  0  0  0
    1.3083    1.0885   -2.9092 C   0  0  0  0  0  0  0  0  0  0  0  0
    1.0401    2.1158   -2.0595 C   0  0  0  0  0  0  0  0  0  0  0  0
    0.9185    1.8227   -0.6189 C   0  0  0  0  0  0  0  0  0  0  0  0
    1.0706    0.5716   -0.1627 C   0  0  0  0  0  0  0  0  0  0  0  0
    1.2084   -2.4476    1.0722 C   0  0  0  0  0  0  0  0  0  0  0  0
    0.6872   -1.3675    1.9796 C   0  0  0  0  0  0  0  0  0  0  0  0
    0.3853   -1.5842    3.2627 C   0  0  0  0  0  0  0  0  0  0  0  0
    0.5518   -2.9133    3.8623 C   0  0  0  0  0  0  0  0  0  0  0  0
    1.0222   -3.9169    3.0930 C   0  0  0  0  0  0  0  0  0  0  0  0
    1.3635   -3.6856    1.6491 C   0  0  0  0  0  0  0  0  0  0  0  0
    0.7017    4.5633   -1.6276 C   0  0  0  0  0  0  0  0  0  0  0  0
    0.8753    3.7426   -3.9265 C   0  0  0  0  0  0  0  0  0  0  0  0
    0.9583   -4.0795    6.0221 C   0  0  0  0  0  0  0  0  0  0  0  0
   -0.8709   -2.4214    5.8690 C   0  0  0  0  0  0  0  0  0  0  0  0
  1  2  1  0  0  0  0
  1 10  1  0  0  0  0
  1 16  1  0  0  0  0
  2  4  2  0  0  0  0
  2  9  1  0  0  0  0
  4  6  1  0  0  0  0
  6  7  2  0  0  0  0
  7  8  1  0  0  0  0
  8  9  2  0  0  0  0
 10 11  2  0  0  0  0
 10 15  1  0  0  0  0
 11 12  1  0  0  0  0
 12 13  2  0  0  0  0
 13  3  1  0  0  0  0
 13 14  1  0  0  0  0
 14 15  2  0  0  0  0
 16 17  2  0  0  0  0
 16 21  1  0  0  0  0
 17 18  1  0  0  0  0
 18 19  2  0  0  0  0
 19  5  1  0  0  0  0
 19 20  1  0  0  0  0
 20 21  2  0  0  0  0
 22  3  1  0  0  0  0
 23  3  1  0  0  0  0
 24  5  1  0  0  0  0
 25  5  1  0  0  0  0
M  END
>  <CHROM.1>
-154.31065571,8.39851312,-177.93979961,-174.68623146,-146.64933335,1.25929684
-1.40005511,0.01293975,-1.32866159,-1.23292201,2.46318984

>  <Name>
1q8n_lig

>  <RI>
0

>  <Rbt.Current_Directory>
/home/itssahil/PROJECTS/Mol_Feturizer/New_Systems/rnas/1q8n

>  <Rbt.Executable>
rbdock ($Id: //depot/dev/client3/rdock/2013.1/src/exe/rbdock.cxx#4 $)

>  <Rbt.Library>
libRbt.so (2013.1, Build901 2013/11/27)

>  <Rbt.Parameter_File>
/export/apps/rDock/src/rDock_2013.1_src/data/scripts/dock_solv.prm

>  <Rbt.Receptor>
prm/pocket_docking_7.prm

>  <SCORE>
-39.9523

>  <SCORE.INTER>
-41.98

>  <SCORE.INTER.CONST>
1

>  <SCORE.INTER.POLAR>
0

>  <SCORE.INTER.ROT>
5

>  <SCORE.INTER.SOLV>
8.81732

>  <SCORE.INTER.VDW>
-37.8591

>  <SCORE.INTER.norm>
-1.6792

>  <SCORE.INTRA>
2.02774

>  <SCORE.INTRA.DIHEDRAL>
3.97394

>  <SCORE.INTRA.DIHEDRAL.0>
2.1627

>  <SCORE.INTRA.POLAR>
0

>  <SCORE.INTRA.POLAR.0>
0

>  <SCORE.INTRA.REPUL>
0

>  <SCORE.INTRA.REPUL.0>
0

>  <SCORE.INTRA.SOLV>
0.0656066

>  <SCORE.INTRA.SOLV.lig_0>
-5.95779

>  <SCORE.INTRA.VDW>
0.00796545

>  <SCORE.INTRA.VDW.0>
3.81702

>  <SCORE.INTRA.norm>
0.0811096

>  <SCORE.RESTR>
0

>  <SCORE.RESTR.CAVITY>
0

>  <SCORE.RESTR.norm>
0

>  <SCORE.SYSTEM>
0

>  <SCORE.SYSTEM.CONST>
0

>  <SCORE.SYSTEM.DIHEDRAL>
0

>  <SCORE.SYSTEM.SOLV>
0

>  <SCORE.SYSTEM.norm>
0

>  <SCORE.heavy>
25

>  <SCORE.norm>
-1.59809

>  <RMSD>
6.440

$$$$
1q8n_lig
 OpenBabel11021811403D
libRbt.so/2013.1/901 2013/11/27
 25 27  0  0  0  0  0  0  0  0999 V2000
    1.7053   -2.7328   -0.8269 C   0  0  0  0  0  0  0  0  0  0  0  0
    1.9832   -3.9023   -1.9316 C   0  0  0  0  0  0  0  0  0  0  0  0
    1.5391   -4.2431    4.9275 N   0  0  0  0  0  0  0  0  0  0  0  0
    1.8125   -5.2226   -1.6814 C   0  0  0  0  0  0  0  0  0  0  0  0
    0.8283    3.0365   -2.1904 N   0  0  0  0  0  0  0  0  0  0  0  0
    2.0816   -6.2530   -2.7108 C   0  0  0  0  0  0  0  0  0  0  0  0
    2.5086   -5.8797   -3.9389 C   0  0  0  0  0  0  0  0  0  0  0  0
    2.6907   -4.4766   -4.2290 C   0  0  0  0  0  0  0  0  0  0  0  0
    2.4465   -3.5572   -3.2918 C   0  0  0  0  0  0  0  0  0  0  0  0
    1.6625   -3.1512    0.7490 C   0  0  0  0  0  0  0  0  0  0  0  0
    2.4685   -4.1161    1.2385 C   0  0  0  0  0  0  0  0  0  0  0  0
    2.4430   -4.5111    2.6742 C   0  0  0  0  0  0  0  0  0  0  0  0
    1.5934   -3.8944    3.5386 C   0  0  0  0  0  0  0  0  0  0  0  0
    0.7076   -2.8358    3.0183 C   0  0  0  0  0  0  0  0  0  0  0  0
    0.7422   -2.4939    1.7227 C   0  0  0  0  0  0  0  0  0  0  0  0
    1.4681   -1.1528   -1.2700 C   0  0  0  0  0  0  0  0  0  0  0  0
    1.0395   -0.1441   -0.2403 C   0  0  0  0  0  0  0  0  0  0  0  0
    0.8408    1.1448   -0.5295 C   0  0  0  0  0  0  0  0  0  0  0  0
    1.0338    1.6497   -1.8939 C   0  0  0  0  0  0  0  0  0  0  0  0
    1.4125    0.7846   -2.8575 C   0  0  0  0  0  0  0  0  0  0  0  0
    1.6403   -0.6662   -2.5439 C   0  0  0  0  0  0  0  0  0  0  0  0
    0.5765   -3.6740    5.8208 C   0  0  0  0  0  0  0  0  0  0  0  0
    2.4648   -5.1899    5.4677 C   0  0  0  0  0  0  0  0  0  0  0  0
    0.4837    3.9581   -1.1462 C   0  0  0  0  0  0  0  0  0  0  0  0
    0.9666    3.5444   -3.5367 C   0  0  0  0  0  0  0  0  0  0  0  0
  1  2  1  0  0  0  0
  1 10  1  0  0  0  0
  1 16  1  0  0  0  0
  2  4  2  0  0  0  0
  2  9  1  0  0  0  0
  4  6  1  0  0  0  0
  6  7  2  0  0  0  0
  7  8  1  0  0  0  0
  8  9  2  0  0  0  0
 10 11  2  0  0  0  0
 10 15  1  0  0  0  0
 11 12  1  0  0  0  0
 12 13  2  0  0  0  0
 13  3  1  0  0  0  0
 13 14  1  0  0  0  0
 14 15  2  0  0  0  0
 16 17  2  0  0  0  0
 16 21  1  0  0  0  0
 17 18  1  0  0  0  0
 18 19  2  0  0  0  0
 19  5  1  0  0  0  0
 19 20  1  0  0  0  0
 20 21  2  0  0  0  0
 22  3  1  0  0  0  0
 23  3  1  0  0  0  0
 24  5  1  0  0  0  0
 25  5  1  0  0  0  0
M  END
>  <CHROM.1>
19.12732922,35.28960981,172.05330490,-174.97315217,2.51809875,1.55276338
-2.10652218,-0.17207779,-1.23615541,1.35534981,-1.09586772

>  <Name>
1q8n_lig

>  <RI>
0

>  <Rbt.Current_Directory>
/home/itssahil/PROJECTS/Mol_Feturizer/New_Systems/rnas/1q8n

>  <Rbt.Executable>
rbdock ($Id: //depot/dev/client3/rdock/2013.1/src/exe/rbdock.cxx#4 $)

>  <Rbt.Library>
libRbt.so (2013.1, Build901 2013/11/27)

>  <Rbt.Parameter_File>
/export/apps/rDock/src/rDock_2013.1_src/data/scripts/dock_solv.prm

>  <Rbt.Receptor>
prm/blind_docking_20.prm

>  <SCORE>
-43.9458

>  <SCORE.INTER>
-45.0752

>  <SCORE.INTER.CONST>
1

>  <SCORE.INTER.POLAR>
0

>  <SCORE.INTER.ROT>
5

>  <SCORE.INTER.SOLV>
9.32459

>  <SCORE.INTER.VDW>
-40.0917

>  <SCORE.INTER.norm>
-1.80301

>  <SCORE.INTRA>
0.670399

>  <SCORE.INTRA.DIHEDRAL>
0.118826

>  <SCORE.INTRA.DIHEDRAL.0>
2.1627

>  <SCORE.INTRA.POLAR>
0

>  <SCORE.INTRA.POLAR.0>
0

>  <SCORE.INTRA.REPUL>
0

>  <SCORE.INTRA.REPUL.0>
0

>  <SCORE.INTRA.SOLV>
0.0508185

>  <SCORE.INTRA.SOLV.lig_0>
-5.95779

>  <SCORE.INTRA.VDW>
0.585577

>  <SCORE.INTRA.VDW.0>
3.81702

>  <SCORE.INTRA.norm>
0.026816

>  <SCORE.RESTR>
0.458972

>  <SCORE.RESTR.CAVITY>
0.458972

>  <SCORE.RESTR.norm>
0.0183589

>  <SCORE.SYSTEM>
0

>  <SCORE.SYSTEM.CONST>
0

>  <SCORE.SYSTEM.DIHEDRAL>
0

>  <SCORE.SYSTEM.SOLV>
0

>  <SCORE.SYSTEM.norm>
0

>  <SCORE.heavy>
25

>  <SCORE.norm>
-1.75783

>  <RMSD>
6.442

$$$$
1q8n_lig
 OpenBabel11021811403D
libRbt.so/2013.1/901 2013/11/27
 25 27  0  0  0  0  0  0  0  0999 V2000
    1.7269   -2.7646   -1.0841 C   0  0  0  0  0  0  0  0  0  0  0  0
    2.0146   -3.8496   -2.2697 C   0  0  0  0  0  0  0  0  0  0  0  0
    0.6783    2.8933   -2.6039 N   0  0  0  0  0  0  0  0  0  0  0  0
    2.3301   -3.5022   -3.5404 C   0  0  0  0  0  0  0  0  0  0  0  0
    1.5463   -4.1634    4.7403 N   0  0  0  0  0  0  0  0  0  0  0  0
    2.5781   -4.5189   -4.5886 C   0  0  0  0  0  0  0  0  0  0  0  0
    2.4920   -5.8337   -4.2824 C   0  0  0  0  0  0  0  0  0  0  0  0
    2.1635   -6.2261   -2.9318 C   0  0  0  0  0  0  0  0  0  0  0  0
    1.9403   -5.3000   -1.9961 C   0  0  0  0  0  0  0  0  0  0  0  0
    1.4402   -1.2154   -1.5058 C   0  0  0  0  0  0  0  0  0  0  0  0
    1.1685   -0.8771   -2.7833 C   0  0  0  0  0  0  0  0  0  0  0  0
    0.9043    0.5320   -3.1864 C   0  0  0  0  0  0  0  0  0  0  0  0
    0.9290    1.5254   -2.2581 C   0  0  0  0  0  0  0  0  0  0  0  0
    1.2225    1.1705   -0.8567 C   0  0  0  0  0  0  0  0  0  0  0  0
    1.4598   -0.1027   -0.5114 C   0  0  0  0  0  0  0  0  0  0  0  0
    1.7222   -3.2010    0.5153 C   0  0  0  0  0  0  0  0  0  0  0  0
    1.0263   -2.3309    1.5254 C   0  0  0  0  0  0  0  0  0  0  0  0
    0.9774   -2.6303    2.8263 C   0  0  0  0  0  0  0  0  0  0  0  0
    1.6143   -3.8467    3.3444 C   0  0  0  0  0  0  0  0  0  0  0  0
    2.2578   -4.6595    2.4808 C   0  0  0  0  0  0  0  0  0  0  0  0
    2.3179   -4.3341    1.0161 C   0  0  0  0  0  0  0  0  0  0  0  0
    0.5939    3.9273   -1.6178 C   0  0  0  0  0  0  0  0  0  0  0  0
    0.5033    3.2683   -3.9728 C   0  0  0  0  0  0  0  0  0  0  0  0
    2.4876   -5.0756    5.3237 C   0  0  0  0  0  0  0  0  0  0  0  0
    0.5407   -3.5741    5.5952 C   0  0  0  0  0  0  0  0  0  0  0  0
  1  2  1  0  0  0  0
  1 10  1  0  0  0  0
  1 16  1  0  0  0  0
  2  4  2  0  0  0  0
  2  9  1  0  0  0  0
  4  6  1  0  0  0  0
  6  7  2  0  0  0  0
  7  8  1  0  0  0  0
  8  9  2  0  0  0  0
 10 11  2  0  0  0  0
 10 15  1  0  0  0  0
 11 12  1  0  0  0  0
 12 13  2  0  0  0  0
 13  3  1  0  0  0  0
 13 14  1  0  0  0  0
 14 15  2  0  0  0  0
 16 17  2  0  0  0  0
 16 21  1  0  0  0  0
 17 18  1  0  0  0  0
 18 19  2  0  0  0  0
 19  5  1  0  0  0  0
 19 20  1  0  0  0  0
 20 21  2  0  0  0  0
 22  3  1  0  0  0  0
 23  3  1  0  0  0  0
 24  5  1  0  0  0  0
 25  5  1  0  0  0  0
M  END
>  <CHROM.1>
15.62230858,13.67482004,-159.73505611,174.75057199,-160.02732573,1.53032000
-2.13483812,-0.45171138,-1.98565349,-1.35539322,1.91007140

>  <Name>
1q8n_lig

>  <RI>
0

>  <Rbt.Current_Directory>
/home/itssahil/PROJECTS/Mol_Feturizer/New_Systems/rnas/1q8n

>  <Rbt.Executable>
rbdock ($Id: //depot/dev/client3/rdock/2013.1/src/exe/rbdock.cxx#4 $)

>  <Rbt.Library>
libRbt.so (2013.1, Build901 2013/11/27)

>  <Rbt.Parameter_File>
/export/apps/rDock/src/rDock_2013.1_src/data/scripts/dock_solv.prm

>  <Rbt.Receptor>
prm/blind_docking_20.prm

>  <SCORE>
-43.7633

>  <SCORE.INTER>
-45.3443

>  <SCORE.INTER.CONST>
1

>  <SCORE.INTER.POLAR>
0

>  <SCORE.INTER.ROT>
5

>  <SCORE.INTER.SOLV>
9.52882

>  <SCORE.INTER.VDW>
-40.3392

>  <SCORE.INTER.norm>
-1.81377

>  <SCORE.INTRA>
1.30634

>  <SCORE.INTRA.DIHEDRAL>
1.59715

>  <SCORE.INTRA.DIHEDRAL.0>
2.1627

>  <SCORE.INTRA.POLAR>
0

>  <SCORE.INTRA.POLAR.0>
0

>  <SCORE.INTRA.REPUL>
0

>  <SCORE.INTRA.REPUL.0>
0

>  <SCORE.INTRA.SOLV>
0.0616441

>  <SCORE.INTRA.SOLV.lig_0>
-5.95779

>  <SCORE.INTRA.VDW>
0.476945

>  <SCORE.INTRA.VDW.0>
3.81702

>  <SCORE.INTRA.norm>
0.0522538

>  <SCORE.RESTR>
0.274662

>  <SCORE.RESTR.CAVITY>
0.274662

>  <SCORE.RESTR.norm>
0.0109865

>  <SCORE.SYSTEM>
0

>  <SCORE.SYSTEM.CONST>
0

>  <SCORE.SYSTEM.DIHEDRAL>
0

>  <SCORE.SYSTEM.SOLV>
0

>  <SCORE.SYSTEM.norm>
0

>  <SCORE.heavy>
25

>  <SCORE.norm>
-1.75053

>  <RMSD>
6.443

$$$$
1q8n_lig
 OpenBabel11021811403D
libRbt.so/2013.1/901 2013/11/27
 25 27  0  0  0  0  0  0  0  0999 V2000
    1.7897   -2.5335   -0.7315 C   0  0  0  0  0  0  0  0  0  0  0  0
    2.1873   -3.6715   -1.8326 C   0  0  0  0  0  0  0  0  0  0  0  0
    1.3565   -4.1770    4.9722 N   0  0  0  0  0  0  0  0  0  0  0  0
    1.8799   -4.9836   -1.6957 C   0  0  0  0  0  0  0  0  0  0  0  0
    0.7536    3.0853   -2.5396 N   0  0  0  0  0  0  0  0  0  0  0  0
    2.2646   -5.9857   -2.7163 C   0  0  0  0  0  0  0  0  0  0  0  0
    2.9402   -5.5938   -3.8208 C   0  0  0  0  0  0  0  0  0  0  0  0
    3.2721   -4.1984   -3.9898 C   0  0  0  0  0  0  0  0  0  0  0  0
    2.9213   -3.3048   -3.0616 C   0  0  0  0  0  0  0  0  0  0  0  0
    1.6692   -2.9789    0.8328 C   0  0  0  0  0  0  0  0  0  0  0  0
    0.9797   -2.2334    1.7212 C   0  0  0  0  0  0  0  0  0  0  0  0
    0.8592   -2.6247    3.1531 C   0  0  0  0  0  0  0  0  0  0  0  0
    1.4500   -3.7638    3.6032 C   0  0  0  0  0  0  0  0  0  0  0  0
    2.2055   -4.5904    2.6430 C   0  0  0  0  0  0  0  0  0  0  0  0
    2.3055   -4.2225    1.3580 C   0  0  0  0  0  0  0  0  0  0  0  0
    1.5091   -0.9586   -1.1671 C   0  0  0  0  0  0  0  0  0  0  0  0
    1.4767   -0.5800   -2.6222 C   0  0  0  0  0  0  0  0  0  0  0  0
    1.2465    0.6678   -3.0398 C   0  0  0  0  0  0  0  0  0  0  0  0
    1.0103    1.7525   -2.0800 C   0  0  0  0  0  0  0  0  0  0  0  0
    1.0347    1.4678   -0.7614 C   0  0  0  0  0  0  0  0  0  0  0  0
    1.2910    0.0686   -0.2802 C   0  0  0  0  0  0  0  0  0  0  0  0
    2.1866   -5.2076    5.5174 C   0  0  0  0  0  0  0  0  0  0  0  0
    0.4116   -3.5558    5.8477 C   0  0  0  0  0  0  0  0  0  0  0  0
    0.6122    3.3542   -3.9418 C   0  0  0  0  0  0  0  0  0  0  0  0
    0.6248    4.1869   -1.6126 C   0  0  0  0  0  0  0  0  0  0  0  0
  1  2  1  0  0  0  0
  1 10  1  0  0  0  0
  1 16  1  0  0  0  0
  2  4  2  0  0  0  0
  2  9  1  0  0  0  0
  4  6  1  0  0  0  0
  6  7  2  0  0  0  0
  7  8  1  0  0  0  0
  8  9  2  0  0  0  0
 10 11  2  0  0  0  0
 10 15  1  0  0  0  0
 11 12  1  0  0  0  0
 12 13  2  0  0  0  0
 13  3  1  0  0  0  0
 13 14  1  0  0  0  0
 14 15  2  0  0  0  0
 16 17  2  0  0  0  0
 16 21  1  0  0  0  0
 17 18  1  0  0  0  0
 18 19  2  0  0  0  0
 19  5  1  0  0  0  0
 19 20  1  0  0  0  0
 20 21  2  0  0  0  0
 22  3  1  0  0  0  0
 23  3  1  0  0  0  0
 24  5  1  0  0  0  0
 25  5  1  0  0  0  0
M  END
>  <CHROM.1>
29.32992912,-160.07033106,6.42924381,-166.87382859,5.29115516,1.59099298
-1.97401898,-0.20131456,-1.36169311,1.29491511,-1.00530381

>  <Name>
1q8n_lig

>  <RI>
0

>  <Rbt.Current_Directory>
/home/itssahil/PROJECTS/Mol_Feturizer/New_Systems/rnas/1q8n

>  <Rbt.Executable>
rbdock ($Id: //depot/dev/client3/rdock/2013.1/src/exe/rbdock.cxx#4 $)

>  <Rbt.Library>
libRbt.so (2013.1, Build901 2013/11/27)

>  <Rbt.Parameter_File>
/export/apps/rDock/src/rDock_2013.1_src/data/scripts/dock_solv.prm

>  <Rbt.Receptor>
prm/blind_docking_20.prm

>  <SCORE>
-42.8063

>  <SCORE.INTER>
-44.091

>  <SCORE.INTER.CONST>
1

>  <SCORE.INTER.POLAR>
0

>  <SCORE.INTER.ROT>
5

>  <SCORE.INTER.SOLV>
9.41484

>  <SCORE.INTER.VDW>
-39.4656

>  <SCORE.INTER.norm>
-1.76364

>  <SCORE.INTRA>
0.748616

>  <SCORE.INTRA.DIHEDRAL>
0.766715

>  <SCORE.INTRA.DIHEDRAL.0>
2.1627

>  <SCORE.INTRA.POLAR>
0

>  <SCORE.INTRA.POLAR.0>
0

>  <SCORE.INTRA.REPUL>
0

>  <SCORE.INTRA.REPUL.0>
0

>  <SCORE.INTRA.SOLV>
0.0536673

>  <SCORE.INTRA.SOLV.lig_0>
-5.95779

>  <SCORE.INTRA.VDW>
0.338425

>  <SCORE.INTRA.VDW.0>
3.81702

>  <SCORE.INTRA.norm>
0.0299446

>  <SCORE.RESTR>
0.536098

>  <SCORE.RESTR.CAVITY>
0.536098

>  <SCORE.RESTR.norm>
0.0214439

>  <SCORE.SYSTEM>
0

>  <SCORE.SYSTEM.CONST>
0

>  <SCORE.SYSTEM.DIHEDRAL>
0

>  <SCORE.SYSTEM.SOLV>
0

>  <SCORE.SYSTEM.norm>
0

>  <SCORE.heavy>
25

>  <SCORE.norm>
-1.71225

>  <RMSD>
6.450

$$$$
1q8n_lig
 OpenBabel11021811403D
libRbt.so/2013.1/901 2013/11/27
 25 27  0  0  0  0  0  0  0  0999 V2000
    1.7187   -2.6655   -0.8735 C   0  0  0  0  0  0  0  0  0  0  0  0
    2.0207   -3.7561   -2.0504 C   0  0  0  0  0  0  0  0  0  0  0  0
    0.8305    3.0121   -2.4217 N   0  0  0  0  0  0  0  0  0  0  0  0
    2.4089   -3.4160   -3.3028 C   0  0  0  0  0  0  0  0  0  0  0  0
    1.2942   -4.0965    4.9304 N   0  0  0  0  0  0  0  0  0  0  0  0
    2.6674   -4.4374   -4.3439 C   0  0  0  0  0  0  0  0  0  0  0  0
    2.5171   -5.7492   -4.0495 C   0  0  0  0  0  0  0  0  0  0  0  0
    2.1105   -6.1340   -2.7182 C   0  0  0  0  0  0  0  0  0  0  0  0
    1.8786   -5.2036   -1.7888 C   0  0  0  0  0  0  0  0  0  0  0  0
    1.4770   -1.1107   -1.3028 C   0  0  0  0  0  0  0  0  0  0  0  0
    1.4353   -0.7417   -2.5999 C   0  0  0  0  0  0  0  0  0  0  0  0
    1.2157    0.6730   -3.0102 C   0  0  0  0  0  0  0  0  0  0  0  0
    1.0464    1.6400   -2.0692 C   0  0  0  0  0  0  0  0  0  0  0  0
    1.0872    1.2512   -0.6468 C   0  0  0  0  0  0  0  0  0  0  0  0
    1.2878   -0.0265   -0.2949 C   0  0  0  0  0  0  0  0  0  0  0  0
    1.6556   -3.1018    0.7247 C   0  0  0  0  0  0  0  0  0  0  0  0
    0.7302   -2.3756    1.6617 C   0  0  0  0  0  0  0  0  0  0  0  0
    0.6247   -2.6839    2.9572 C   0  0  0  0  0  0  0  0  0  0  0  0
    1.4235   -3.7674    3.5417 C   0  0  0  0  0  0  0  0  0  0  0  0
    2.2745   -4.4473    2.7455 C   0  0  0  0  0  0  0  0  0  0  0  0
    2.4005   -4.1107    1.2875 C   0  0  0  0  0  0  0  0  0  0  0  0
    0.8479    3.4637   -3.7798 C   0  0  0  0  0  0  0  0  0  0  0  0
    0.5858    3.9860   -1.4035 C   0  0  0  0  0  0  0  0  0  0  0  0
    0.3185   -3.4317    5.7455 C   0  0  0  0  0  0  0  0  0  0  0  0
    2.1310   -5.1029    5.5439 C   0  0  0  0  0  0  0  0  0  0  0  0
  1  2  1  0  0  0  0
  1 10  1  0  0  0  0
  1 16  1  0  0  0  0
  2  4  2  0  0  0  0
  2  9  1  0  0  0  0
  4  6  1  0  0  0  0
  6  7  2  0  0  0  0
  7  8  1  0  0  0  0
  8  9  2  0  0  0  0
 10 11  2  0  0  0  0
 10 15  1  0  0  0  0
 11 12  1  0  0  0  0
 12 13  2  0  0  0  0
 13  3  1  0  0  0  0
 13 14  1  0  0  0  0
 14 15  2  0  0  0  0
 16 17  2  0  0  0  0
 16 21  1  0  0  0  0
 17 18  1  0  0  0  0
 18 19  2  0  0  0  0
 19  5  1  0  0  0  0
 19 20  1  0  0  0  0
 20 21  2  0  0  0  0
 22  3  1  0  0  0  0
 23  3  1  0  0  0  0
 24  5  1  0  0  0  0
 25  5  1  0  0  0  0
M  END
>  <CHROM.1>
17.01636626,4.45057811,-147.73584317,-3.29950385,4.19388375,1.50331732,-2.04070120
-0.24788826,-1.77578859,-1.34888759,2.11901908

>  <Name>
1q8n_lig

>  <RI>
0

>  <Rbt.Current_Directory>
/home/itssahil/PROJECTS/Mol_Feturizer/New_Systems/rnas/1q8n

>  <Rbt.Executable>
rbdock ($Id: //depot/dev/client3/rdock/2013.1/src/exe/rbdock.cxx#4 $)

>  <Rbt.Library>
libRbt.so (2013.1, Build901 2013/11/27)

>  <Rbt.Parameter_File>
/export/apps/rDock/src/rDock_2013.1_src/data/scripts/dock_solv.prm

>  <Rbt.Receptor>
prm/blind_docking_80.prm

>  <SCORE>
-44.3384

>  <SCORE.INTER>
-45.8266

>  <SCORE.INTER.CONST>
1

>  <SCORE.INTER.POLAR>
0

>  <SCORE.INTER.ROT>
5

>  <SCORE.INTER.SOLV>
9.21092

>  <SCORE.INTER.VDW>
-40.5547

>  <SCORE.INTER.norm>
-1.83307

>  <SCORE.INTRA>
1.0017

>  <SCORE.INTRA.DIHEDRAL>
0.109145

>  <SCORE.INTRA.DIHEDRAL.0>
2.1627

>  <SCORE.INTRA.POLAR>
0

>  <SCORE.INTRA.POLAR.0>
0

>  <SCORE.INTRA.REPUL>
0

>  <SCORE.INTRA.REPUL.0>
0

>  <SCORE.INTRA.SOLV>
0.0543174

>  <SCORE.INTRA.SOLV.lig_0>
-5.95779

>  <SCORE.INTRA.VDW>
0.919965

>  <SCORE.INTRA.VDW.0>
3.81702

>  <SCORE.INTRA.norm>
0.0400678

>  <SCORE.RESTR>
0.486528

>  <SCORE.RESTR.CAVITY>
0.486528

>  <SCORE.RESTR.norm>
0.0194611

>  <SCORE.SYSTEM>
0

>  <SCORE.SYSTEM.CONST>
0

>  <SCORE.SYSTEM.DIHEDRAL>
0

>  <SCORE.SYSTEM.SOLV>
0

>  <SCORE.SYSTEM.norm>
0

>  <SCORE.heavy>
25

>  <SCORE.norm>
-1.77354

>  <RMSD>
6.453

$$$$
1q8n_lig
 OpenBabel11021811403D
libRbt.so/2013.1/901 2013/11/27
 25 27  0  0  0  0  0  0  0  0999 V2000
    1.7014   -2.5757   -0.7139 C   0  0  0  0  0  0  0  0  0  0  0  0
    2.0307   -3.6748   -1.8753 C   0  0  0  0  0  0  0  0  0  0  0  0
    0.8442    3.0784   -2.3625 N   0  0  0  0  0  0  0  0  0  0  0  0
    2.5058   -3.3477   -3.1009 C   0  0  0  0  0  0  0  0  0  0  0  0
    1.5549   -4.2491    5.0386 N   0  0  0  0  0  0  0  0  0  0  0  0
    2.7863   -4.3763   -4.1291 C   0  0  0  0  0  0  0  0  0  0  0  0
    2.5681   -5.6818   -3.8497 C   0  0  0  0  0  0  0  0  0  0  0  0
    2.0681   -6.0531   -2.5466 C   0  0  0  0  0  0  0  0  0  0  0  0
    1.8173   -5.1162   -1.6287 C   0  0  0  0  0  0  0  0  0  0  0  0
    1.4646   -1.0250   -1.1608 C   0  0  0  0  0  0  0  0  0  0  0  0
    1.2425   -0.0594   -0.2450 C   0  0  0  0  0  0  0  0  0  0  0  0
    1.0242    1.3613   -0.6348 C   0  0  0  0  0  0  0  0  0  0  0  0
    1.0475    1.7225   -1.9456 C   0  0  0  0  0  0  0  0  0  0  0  0
    1.2914    0.6780   -2.9582 C   0  0  0  0  0  0  0  0  0  0  0  0
    1.4841   -0.5964   -2.5901 C   0  0  0  0  0  0  0  0  0  0  0  0
    1.6061   -2.9991    0.8862 C   0  0  0  0  0  0  0  0  0  0  0  0
    2.4685   -4.1106    1.4179 C   0  0  0  0  0  0  0  0  0  0  0  0
    2.4469   -4.4938    2.6973 C   0  0  0  0  0  0  0  0  0  0  0  0
    1.5619   -3.8368    3.6663 C   0  0  0  0  0  0  0  0  0  0  0  0
    0.7625   -2.8371    3.2397 C   0  0  0  0  0  0  0  0  0  0  0  0
    0.7793   -2.3966    1.8043 C   0  0  0  0  0  0  0  0  0  0  0  0
    0.5841    4.1333   -1.4308 C   0  0  0  0  0  0  0  0  0  0  0  0
    0.8984    3.4196   -3.7503 C   0  0  0  0  0  0  0  0  0  0  0  0
    2.4364   -5.2879    5.4883 C   0  0  0  0  0  0  0  0  0  0  0  0
    0.6721   -3.6322    6.0028 C   0  0  0  0  0  0  0  0  0  0  0  0
  1  2  1  0  0  0  0
  1 10  1  0  0  0  0
  1 16  1  0  0  0  0
  2  4  2  0  0  0  0
  2  9  1  0  0  0  0
  4  6  1  0  0  0  0
  6  7  2  0  0  0  0
  7  8  1  0  0  0  0
  8  9  2  0  0  0  0
 10 11  2  0  0  0  0
 10 15  1  0  0  0  0
 11 12  1  0  0  0  0
 12 13  2  0  0  0  0
 13  3  1  0  0  0  0
 13 14  1  0  0  0  0
 14 15  2  0  0  0  0
 16 17  2  0  0  0  0
 16 21  1  0  0  0  0
 17 18  1  0  0  0  0
 18 19  2  0  0  0  0
 19  5  1  0  0  0  0
 19 20  1  0  0  0  0
 20 21  2  0  0  0  0
 22  3  1  0  0  0  0
 23  3  1  0  0  0  0
 24  5  1  0  0  0  0
 25  5  1  0  0  0  0
M  END
>  <CHROM.1>
20.33967897,-177.29068431,32.36956885,-0.97912489,1.49450683,1.57356928,-2.02872922
-0.13660250,-1.87874134,-1.35041648,2.03970727

>  <Name>
1q8n_lig

>  <RI>
0

>  <Rbt.Current_Directory>
/home/itssahil/PROJECTS/Mol_Feturizer/New_Systems/rnas/1q8n

>  <Rbt.Executable>
rbdock ($Id: //depot/dev/client3/rdock/2013.1/src/exe/rbdock.cxx#4 $)

>  <Rbt.Library>
libRbt.so (2013.1, Build901 2013/11/27)

>  <Rbt.Parameter_File>
/export/apps/rDock/src/rDock_2013.1_src/data/scripts/dock_solv.prm

>  <Rbt.Receptor>
prm/blind_docking_100.prm

>  <SCORE>
-43.2264

>  <SCORE.INTER>
-44.45

>  <SCORE.INTER.CONST>
1

>  <SCORE.INTER.POLAR>
0

>  <SCORE.INTER.ROT>
5

>  <SCORE.INTER.SOLV>
9.3391

>  <SCORE.INTER.VDW>
-39.6797

>  <SCORE.INTER.norm>
-1.778

>  <SCORE.INTRA>
0.786171

>  <SCORE.INTRA.DIHEDRAL>
0.00832645

>  <SCORE.INTRA.DIHEDRAL.0>
2.1627

>  <SCORE.INTRA.POLAR>
0

>  <SCORE.INTRA.POLAR.0>
0

>  <SCORE.INTRA.REPUL>
0

>  <SCORE.INTRA.REPUL.0>
0

>  <SCORE.INTRA.SOLV>
0.0515727

>  <SCORE.INTRA.SOLV.lig_0>
-5.95779

>  <SCORE.INTRA.VDW>
0.756221

>  <SCORE.INTRA.VDW.0>
3.81702

>  <SCORE.INTRA.norm>
0.0314468

>  <SCORE.RESTR>
0.437405

>  <SCORE.RESTR.CAVITY>
0.437405

>  <SCORE.RESTR.norm>
0.0174962

>  <SCORE.SYSTEM>
0

>  <SCORE.SYSTEM.CONST>
0

>  <SCORE.SYSTEM.DIHEDRAL>
0

>  <SCORE.SYSTEM.SOLV>
0

>  <SCORE.SYSTEM.norm>
0

>  <SCORE.heavy>
25

>  <SCORE.norm>
-1.72906

>  <RMSD>
6.454

$$$$
1q8n_lig
 OpenBabel11021811413D
libRbt.so/2013.1/901 2013/11/27
 25 27  0  0  0  0  0  0  0  0999 V2000
    2.7842   -3.1329   -2.5532 C   0  0  0  0  0  0  0  0  0  0  0  0
    2.1772   -4.5232   -1.9499 C   0  0  0  0  0  0  0  0  0  0  0  0
    0.4916    2.0235   -0.6619 N   0  0  0  0  0  0  0  0  0  0  0  0
    1.8711   -4.6998   -0.6423 C   0  0  0  0  0  0  0  0  0  0  0  0
    7.1382   -3.3389   -6.6658 N   0  0  0  0  0  0  0  0  0  0  0  0
    1.3271   -5.9805   -0.1343 C   0  0  0  0  0  0  0  0  0  0  0  0
    1.1241   -7.0096   -0.9886 C   0  0  0  0  0  0  0  0  0  0  0  0
    1.4375   -6.8403   -2.3882 C   0  0  0  0  0  0  0  0  0  0  0  0
    1.9291   -5.6814   -2.8336 C   0  0  0  0  0  0  0  0  0  0  0  0
    2.1541   -1.7222   -2.0304 C   0  0  0  0  0  0  0  0  0  0  0  0
    1.7691   -1.5611   -0.7474 C   0  0  0  0  0  0  0  0  0  0  0  0
    1.1919   -0.2805   -0.2527 C   0  0  0  0  0  0  0  0  0  0  0  0
    1.0406    0.7738   -1.0982 C   0  0  0  0  0  0  0  0  0  0  0  0
    1.4592    0.6132   -2.5035 C   0  0  0  0  0  0  0  0  0  0  0  0
    1.9751   -0.5470   -2.9327 C   0  0  0  0  0  0  0  0  0  0  0  0
    4.0089   -3.1281   -3.6708 C   0  0  0  0  0  0  0  0  0  0  0  0
    4.3334   -4.3854   -4.4293 C   0  0  0  0  0  0  0  0  0  0  0  0
    5.3004   -4.4460   -5.3489 C   0  0  0  0  0  0  0  0  0  0  0  0
    6.1106   -3.2652   -5.6698 C   0  0  0  0  0  0  0  0  0  0  0  0
    5.8645   -2.1125   -5.0132 C   0  0  0  0  0  0  0  0  0  0  0  0
    4.7791   -2.0320   -3.9786 C   0  0  0  0  0  0  0  0  0  0  0  0
    0.5798    3.2139   -1.4516 C   0  0  0  0  0  0  0  0  0  0  0  0
   -0.1738    2.1147    0.6008 C   0  0  0  0  0  0  0  0  0  0  0  0
    8.0478   -4.4482   -6.6887 C   0  0  0  0  0  0  0  0  0  0  0  0
    7.2837   -2.3106   -7.6712 C   0  0  0  0  0  0  0  0  0  0  0  0
  1  2  1  0  0  0  0
  1 10  1  0  0  0  0
  1 16  1  0  0  0  0
  2  4  2  0  0  0  0
  2  9  1  0  0  0  0
  4  6  1  0  0  0  0
  6  7  2  0  0  0  0
  7  8  1  0  0  0  0
  8  9  2  0  0  0  0
 10 11  2  0  0  0  0
 10 15  1  0  0  0  0
 11 12  1  0  0  0  0
 12 13  2  0  0  0  0
 13  3  1  0  0  0  0
 13 14  1  0  0  0  0
 14 15  2  0  0  0  0
 16 17  2  0  0  0  0
 16 21  1  0  0  0  0
 17 18  1  0  0  0  0
 18 19  2  0  0  0  0
 19  5  1  0  0  0  0
 19 20  1  0  0  0  0
 20 21  2  0  0  0  0
 22  3  1  0  0  0  0
 23  3  1  0  0  0  0
 24  5  1  0  0  0  0
 25  5  1  0  0  0  0
M  END
>  <CHROM.1>
-41.97929147,36.93409489,16.67957283,166.79118711,-45.15541066,3.06573998
-2.44677831,-2.89548468,2.63120511,0.77222686,-0.04900318

>  <Name>
1q8n_lig

>  <RI>
0

>  <Rbt.Current_Directory>
/home/itssahil/PROJECTS/Mol_Feturizer/New_Systems/rnas/1q8n

>  <Rbt.Executable>
rbdock ($Id: //depot/dev/client3/rdock/2013.1/src/exe/rbdock.cxx#4 $)

>  <Rbt.Library>
libRbt.so (2013.1, Build901 2013/11/27)

>  <Rbt.Parameter_File>
/export/apps/rDock/src/rDock_2013.1_src/data/scripts/dock_solv.prm

>  <Rbt.Receptor>
prm/pocket_docking_8.prm

>  <SCORE>
-27.0815

>  <SCORE.INTER>
-28.8338

>  <SCORE.INTER.CONST>
1

>  <SCORE.INTER.POLAR>
0

>  <SCORE.INTER.ROT>
5

>  <SCORE.INTER.SOLV>
10.3513

>  <SCORE.INTER.VDW>
-29.6063

>  <SCORE.INTER.norm>
-1.15335

>  <SCORE.INTRA>
1.61938

>  <SCORE.INTRA.DIHEDRAL>
7.09995

>  <SCORE.INTRA.DIHEDRAL.0>
2.1627

>  <SCORE.INTRA.POLAR>
0

>  <SCORE.INTRA.POLAR.0>
0

>  <SCORE.INTRA.REPUL>
0

>  <SCORE.INTRA.REPUL.0>
0

>  <SCORE.INTRA.SOLV>
0.0273812

>  <SCORE.INTRA.SOLV.lig_0>
-5.95779

>  <SCORE.INTRA.VDW>
-1.94429

>  <SCORE.INTRA.VDW.0>
3.81702

>  <SCORE.INTRA.norm>
0.064775

>  <SCORE.RESTR>
0.132833

>  <SCORE.RESTR.CAVITY>
0.132833

>  <SCORE.RESTR.norm>
0.00531331

>  <SCORE.SYSTEM>
0

>  <SCORE.SYSTEM.CONST>
0

>  <SCORE.SYSTEM.DIHEDRAL>
0

>  <SCORE.SYSTEM.SOLV>
0

>  <SCORE.SYSTEM.norm>
0

>  <SCORE.heavy>
25

>  <SCORE.norm>
-1.08326

>  <RMSD>
6.455

$$$$
1q8n_lig
 OpenBabel11021811403D
libRbt.so/2013.1/901 2013/11/27
 25 27  0  0  0  0  0  0  0  0999 V2000
    1.7848   -2.7913   -0.9569 C   0  0  0  0  0  0  0  0  0  0  0  0
    2.1036   -3.8526   -2.1559 C   0  0  0  0  0  0  0  0  0  0  0  0
    0.7066    2.8721   -2.4352 N   0  0  0  0  0  0  0  0  0  0  0  0
    2.5475   -3.4844   -3.3816 C   0  0  0  0  0  0  0  0  0  0  0  0
    1.5226   -4.2932    4.8386 N   0  0  0  0  0  0  0  0  0  0  0  0
    2.8194   -4.4796   -4.4444 C   0  0  0  0  0  0  0  0  0  0  0  0
    2.6249   -5.7954   -4.1978 C   0  0  0  0  0  0  0  0  0  0  0  0
    2.1585   -6.2102   -2.8954 C   0  0  0  0  0  0  0  0  0  0  0  0
    1.9151   -5.3032   -1.9460 C   0  0  0  0  0  0  0  0  0  0  0  0
    1.4883   -1.2381   -1.3569 C   0  0  0  0  0  0  0  0  0  0  0  0
    1.4401   -0.2710   -0.4173 C   0  0  0  0  0  0  0  0  0  0  0  0
    1.1706    1.1520   -0.7642 C   0  0  0  0  0  0  0  0  0  0  0  0
    0.9666    1.5140   -2.0590 C   0  0  0  0  0  0  0  0  0  0  0  0
    1.0186    0.4678   -3.0977 C   0  0  0  0  0  0  0  0  0  0  0  0
    1.2605   -0.8087   -2.7678 C   0  0  0  0  0  0  0  0  0  0  0  0
    1.7587   -3.2551    0.6346 C   0  0  0  0  0  0  0  0  0  0  0  0
    1.0279   -2.4156    1.6458 C   0  0  0  0  0  0  0  0  0  0  0  0
    0.9606   -2.7381    2.9404 C   0  0  0  0  0  0  0  0  0  0  0  0
    1.6105   -3.9514    3.4498 C   0  0  0  0  0  0  0  0  0  0  0  0
    2.2850   -4.7371    2.5849 C   0  0  0  0  0  0  0  0  0  0  0  0
    2.3662   -4.3855    1.1272 C   0  0  0  0  0  0  0  0  0  0  0  0
    0.5550    3.9167   -1.4686 C   0  0  0  0  0  0  0  0  0  0  0  0
    0.5904    3.2260   -3.8159 C   0  0  0  0  0  0  0  0  0  0  0  0
    2.3800   -5.3012    5.3930 C   0  0  0  0  0  0  0  0  0  0  0  0
    0.5808   -3.6346    5.7152 C   0  0  0  0  0  0  0  0  0  0  0  0
  1  2  1  0  0  0  0
  1 10  1  0  0  0  0
  1 16  1  0  0  0  0
  2  4  2  0  0  0  0
  2  9  1  0  0  0  0
  4  6  1  0  0  0  0
  6  7  2  0  0  0  0
  7  8  1  0  0  0  0
  8  9  2  0  0  0  0
 10 11  2  0  0  0  0
 10 15  1  0  0  0  0
 11 12  1  0  0  0  0
 12 13  2  0  0  0  0
 13  3  1  0  0  0  0
 13 14  1  0  0  0  0
 14 15  2  0  0  0  0
 16 17  2  0  0  0  0
 16 21  1  0  0  0  0
 17 18  1  0  0  0  0
 18 19  2  0  0  0  0
 19  5  1  0  0  0  0
 19 20  1  0  0  0  0
 20 21  2  0  0  0  0
 22  3  1  0  0  0  0
 23  3  1  0  0  0  0
 24  5  1  0  0  0  0
 25  5  1  0  0  0  0
M  END
>  <CHROM.1>
21.52943695,-168.77902477,-159.26301830,-4.33007041,-166.53826039,1.56924890
-2.18044032,-0.34004924,-1.91742385,-1.33962230,1.98548801

>  <Name>
1q8n_lig

>  <RI>
0

>  <Rbt.Current_Directory>
/home/itssahil/PROJECTS/Mol_Feturizer/New_Systems/rnas/1q8n

>  <Rbt.Executable>
rbdock ($Id: //depot/dev/client3/rdock/2013.1/src/exe/rbdock.cxx#4 $)

>  <Rbt.Library>
libRbt.so (2013.1, Build901 2013/11/27)

>  <Rbt.Parameter_File>
/export/apps/rDock/src/rDock_2013.1_src/data/scripts/dock_solv.prm

>  <Rbt.Receptor>
prm/blind_docking_60.prm

>  <SCORE>
-43.9447

>  <SCORE.INTER>
-45.0984

>  <SCORE.INTER.CONST>
1

>  <SCORE.INTER.POLAR>
0

>  <SCORE.INTER.ROT>
5

>  <SCORE.INTER.SOLV>
9.6586

>  <SCORE.INTER.VDW>
-40.2185

>  <SCORE.INTER.norm>
-1.80394

>  <SCORE.INTRA>
1.04779

>  <SCORE.INTRA.DIHEDRAL>
0.764834

>  <SCORE.INTRA.DIHEDRAL.0>
2.1627

>  <SCORE.INTRA.POLAR>
0

>  <SCORE.INTRA.POLAR.0>
0

>  <SCORE.INTRA.REPUL>
0

>  <SCORE.INTRA.REPUL.0>
0

>  <SCORE.INTRA.SOLV>
0.0584288

>  <SCORE.INTRA.SOLV.lig_0>
-5.95779

>  <SCORE.INTRA.VDW>
0.636159

>  <SCORE.INTRA.VDW.0>
3.81702

>  <SCORE.INTRA.norm>
0.0419116

>  <SCORE.RESTR>
0.105891

>  <SCORE.RESTR.CAVITY>
0.105891

>  <SCORE.RESTR.norm>
0.00423563

>  <SCORE.SYSTEM>
0

>  <SCORE.SYSTEM.CONST>
0

>  <SCORE.SYSTEM.DIHEDRAL>
0

>  <SCORE.SYSTEM.SOLV>
0

>  <SCORE.SYSTEM.norm>
0

>  <SCORE.heavy>
25

>  <SCORE.norm>
-1.75779

>  <RMSD>
6.458

$$$$
1q8n_lig
 OpenBabel11021811403D
libRbt.so/2013.1/901 2013/11/27
 25 27  0  0  0  0  0  0  0  0999 V2000
    1.7288   -2.7630   -0.7586 C   0  0  0  0  0  0  0  0  0  0  0  0
    2.0387   -3.9237   -1.8642 C   0  0  0  0  0  0  0  0  0  0  0  0
    1.4833   -4.3043    4.9847 N   0  0  0  0  0  0  0  0  0  0  0  0
    1.7927   -5.2393   -1.6557 C   0  0  0  0  0  0  0  0  0  0  0  0
    0.8168    3.0041   -2.1081 N   0  0  0  0  0  0  0  0  0  0  0  0
    2.0942   -6.2620   -2.6839 C   0  0  0  0  0  0  0  0  0  0  0  0
    2.6285   -5.8860   -3.8684 C   0  0  0  0  0  0  0  0  0  0  0  0
    2.8925   -4.4874   -4.1140 C   0  0  0  0  0  0  0  0  0  0  0  0
    2.6180   -3.5751   -3.1783 C   0  0  0  0  0  0  0  0  0  0  0  0
    1.6643   -3.1899    0.8142 C   0  0  0  0  0  0  0  0  0  0  0  0
    2.4589   -4.1619    1.3082 C   0  0  0  0  0  0  0  0  0  0  0  0
    2.4136   -4.5647    2.7413 C   0  0  0  0  0  0  0  0  0  0  0  0
    1.5567   -3.9482    3.5986 C   0  0  0  0  0  0  0  0  0  0  0  0
    0.6831   -2.8819    3.0733 C   0  0  0  0  0  0  0  0  0  0  0  0
    0.7355   -2.5330    1.7802 C   0  0  0  0  0  0  0  0  0  0  0  0
    1.4810   -1.1837   -1.1979 C   0  0  0  0  0  0  0  0  0  0  0  0
    1.0655   -0.1761   -0.1617 C   0  0  0  0  0  0  0  0  0  0  0  0
    0.8593    1.1124   -0.4477 C   0  0  0  0  0  0  0  0  0  0  0  0
    1.0303    1.6178   -1.8149 C   0  0  0  0  0  0  0  0  0  0  0  0
    1.3964    0.7537   -2.7842 C   0  0  0  0  0  0  0  0  0  0  0  0
    1.6325   -0.6965   -2.4743 C   0  0  0  0  0  0  0  0  0  0  0  0
    2.3459   -5.2864    5.5677 C   0  0  0  0  0  0  0  0  0  0  0  0
    0.5263   -3.6728    5.8395 C   0  0  0  0  0  0  0  0  0  0  0  0
    0.4676    3.9213   -1.0616 C   0  0  0  0  0  0  0  0  0  0  0  0
    0.9515    3.5158   -3.4533 C   0  0  0  0  0  0  0  0  0  0  0  0
  1  2  1  0  0  0  0
  1 10  1  0  0  0  0
  1 16  1  0  0  0  0
  2  4  2  0  0  0  0
  2  9  1  0  0  0  0
  4  6  1  0  0  0  0
  6  7  2  0  0  0  0
  7  8  1  0  0  0  0
  8  9  2  0  0  0  0
 10 11  2  0  0  0  0
 10 15  1  0  0  0  0
 11 12  1  0  0  0  0
 12 13  2  0  0  0  0
 13  3  1  0  0  0  0
 13 14  1  0  0  0  0
 14 15  2  0  0  0  0
 16 17  2  0  0  0  0
 16 21  1  0  0  0  0
 17 18  1  0  0  0  0
 18 19  2  0  0  0  0
 19  5  1  0  0  0  0
 19 20  1  0  0  0  0
 20 21  2  0  0  0  0
 22  3  1  0  0  0  0
 23  3  1  0  0  0  0
 24  5  1  0  0  0  0
 25  5  1  0  0  0  0
M  END
>  <CHROM.1>
23.81819232,34.28962962,173.98157558,2.86231567,1.65335879,1.56000848,-2.14001904
-0.10231954,-1.28479619,1.33888344,-1.04285482

>  <Name>
1q8n_lig

>  <RI>
0

>  <Rbt.Current_Directory>
/home/itssahil/PROJECTS/Mol_Feturizer/New_Systems/rnas/1q8n

>  <Rbt.Executable>
rbdock ($Id: //depot/dev/client3/rdock/2013.1/src/exe/rbdock.cxx#4 $)

>  <Rbt.Library>
libRbt.so (2013.1, Build901 2013/11/27)

>  <Rbt.Parameter_File>
/export/apps/rDock/src/rDock_2013.1_src/data/scripts/dock_solv.prm

>  <Rbt.Receptor>
prm/blind_docking_40.prm

>  <SCORE>
-44.7549

>  <SCORE.INTER>
-45.3252

>  <SCORE.INTER.CONST>
1

>  <SCORE.INTER.POLAR>
0

>  <SCORE.INTER.ROT>
5

>  <SCORE.INTER.SOLV>
9.3786

>  <SCORE.INTER.VDW>
-40.2763

>  <SCORE.INTER.norm>
-1.81301

>  <SCORE.INTRA>
0.570265

>  <SCORE.INTRA.DIHEDRAL>
0.0385327

>  <SCORE.INTRA.DIHEDRAL.0>
2.1627

>  <SCORE.INTRA.POLAR>
0

>  <SCORE.INTRA.POLAR.0>
0

>  <SCORE.INTRA.REPUL>
0

>  <SCORE.INTRA.REPUL.0>
0

>  <SCORE.INTRA.SOLV>
0.0485478

>  <SCORE.INTRA.SOLV.lig_0>
-5.95779

>  <SCORE.INTRA.VDW>
0.526725

>  <SCORE.INTRA.VDW.0>
3.81702

>  <SCORE.INTRA.norm>
0.0228106

>  <SCORE.RESTR>
0

>  <SCORE.RESTR.CAVITY>
0

>  <SCORE.RESTR.norm>
0

>  <SCORE.SYSTEM>
0

>  <SCORE.SYSTEM.CONST>
0

>  <SCORE.SYSTEM.DIHEDRAL>
0

>  <SCORE.SYSTEM.SOLV>
0

>  <SCORE.SYSTEM.norm>
0

>  <SCORE.heavy>
25

>  <SCORE.norm>
-1.7902

>  <RMSD>
6.464

$$$$
1q8n_lig
 OpenBabel11021811413D
libRbt.so/2013.1/901 2013/11/27
 25 27  0  0  0  0  0  0  0  0999 V2000
    1.7586   -2.5532   -0.5706 C   0  0  0  0  0  0  0  0  0  0  0  0
    2.0825   -3.6726   -1.7141 C   0  0  0  0  0  0  0  0  0  0  0  0
    1.5133   -4.2912    5.1163 N   0  0  0  0  0  0  0  0  0  0  0  0
    2.6576   -3.3798   -2.9050 C   0  0  0  0  0  0  0  0  0  0  0  0
    0.8249    3.1366   -2.2037 N   0  0  0  0  0  0  0  0  0  0  0  0
    2.9294   -4.4254   -3.9184 C   0  0  0  0  0  0  0  0  0  0  0  0
    2.6008   -5.7120   -3.6603 C   0  0  0  0  0  0  0  0  0  0  0  0
    1.9927   -6.0471   -2.3939 C   0  0  0  0  0  0  0  0  0  0  0  0
    1.7511   -5.0951   -1.4892 C   0  0  0  0  0  0  0  0  0  0  0  0
    1.6940   -3.0341    0.9866 C   0  0  0  0  0  0  0  0  0  0  0  0
    2.4582   -4.0507    1.4369 C   0  0  0  0  0  0  0  0  0  0  0  0
    2.4122   -4.5031    2.8551 C   0  0  0  0  0  0  0  0  0  0  0  0
    1.5860   -3.8881    3.7431 C   0  0  0  0  0  0  0  0  0  0  0  0
    0.7460   -2.7735    3.2657 C   0  0  0  0  0  0  0  0  0  0  0  0
    0.7984   -2.3803    1.9854 C   0  0  0  0  0  0  0  0  0  0  0  0
    1.4970   -0.9622   -0.9565 C   0  0  0  0  0  0  0  0  0  0  0  0
    1.6514   -0.5034   -2.3804 C   0  0  0  0  0  0  0  0  0  0  0  0
    1.4460    0.7610   -2.7590 C   0  0  0  0  0  0  0  0  0  0  0  0
    1.0530    1.7855   -1.7844 C   0  0  0  0  0  0  0  0  0  0  0  0
    0.9066    1.4278   -0.4917 C   0  0  0  0  0  0  0  0  0  0  0  0
    1.1332    0.0092   -0.0546 C   0  0  0  0  0  0  0  0  0  0  0  0
    2.3392   -5.3301    5.6522 C   0  0  0  0  0  0  0  0  0  0  0  0
    0.5944   -3.6511    6.0058 C   0  0  0  0  0  0  0  0  0  0  0  0
    0.8576    3.4790   -3.5966 C   0  0  0  0  0  0  0  0  0  0  0  0
    0.5516    4.1836   -1.2452 C   0  0  0  0  0  0  0  0  0  0  0  0
  1  2  1  0  0  0  0
  1 10  1  0  0  0  0
  1 16  1  0  0  0  0
  2  4  2  0  0  0  0
  2  9  1  0  0  0  0
  4  6  1  0  0  0  0
  6  7  2  0  0  0  0
  7  8  1  0  0  0  0
  8  9  2  0  0  0  0
 10 11  2  0  0  0  0
 10 15  1  0  0  0  0
 11 12  1  0  0  0  0
 12 13  2  0  0  0  0
 13  3  1  0  0  0  0
 13 14  1  0  0  0  0
 14 15  2  0  0  0  0
 16 17  2  0  0  0  0
 16 21  1  0  0  0  0
 17 18  1  0  0  0  0
 18 19  2  0  0  0  0
 19  5  1  0  0  0  0
 19 20  1  0  0  0  0
 20 21  2  0  0  0  0
 22  3  1  0  0  0  0
 23  3  1  0  0  0  0
 24  5  1  0  0  0  0
 25  5  1  0  0  0  0
M  END
>  <CHROM.1>
-153.70230523,31.61276755,-4.30327777,2.40403781,5.74051234,1.57867193,-2.00936038
0.00705101,-1.28244797,1.33927519,-1.04899325

>  <Name>
1q8n_lig

>  <RI>
0

>  <Rbt.Current_Directory>
/home/itssahil/PROJECTS/Mol_Feturizer/New_Systems/rnas/1q8n

>  <Rbt.Executable>
rbdock ($Id: //depot/dev/client3/rdock/2013.1/src/exe/rbdock.cxx#4 $)

>  <Rbt.Library>
libRbt.so (2013.1, Build901 2013/11/27)

>  <Rbt.Parameter_File>
/export/apps/rDock/src/rDock_2013.1_src/data/scripts/dock_solv.prm

>  <Rbt.Receptor>
prm/pocket_docking_8.prm

>  <SCORE>
-44.0467

>  <SCORE.INTER>
-44.549

>  <SCORE.INTER.CONST>
1

>  <SCORE.INTER.POLAR>
0

>  <SCORE.INTER.ROT>
5

>  <SCORE.INTER.SOLV>
9.3317

>  <SCORE.INTER.VDW>
-39.7432

>  <SCORE.INTER.norm>
-1.78196

>  <SCORE.INTRA>
0.502334

>  <SCORE.INTRA.DIHEDRAL>
0.147178

>  <SCORE.INTRA.DIHEDRAL.0>
2.1627

>  <SCORE.INTRA.POLAR>
0

>  <SCORE.INTRA.POLAR.0>
0

>  <SCORE.INTRA.REPUL>
0

>  <SCORE.INTRA.REPUL.0>
0

>  <SCORE.INTRA.SOLV>
0.0489175

>  <SCORE.INTRA.SOLV.lig_0>
-5.95779

>  <SCORE.INTRA.VDW>
0.404286

>  <SCORE.INTRA.VDW.0>
3.81702

>  <SCORE.INTRA.norm>
0.0200934

>  <SCORE.RESTR>
0

>  <SCORE.RESTR.CAVITY>
0

>  <SCORE.RESTR.norm>
0

>  <SCORE.SYSTEM>
0

>  <SCORE.SYSTEM.CONST>
0

>  <SCORE.SYSTEM.DIHEDRAL>
0

>  <SCORE.SYSTEM.SOLV>
0

>  <SCORE.SYSTEM.norm>
0

>  <SCORE.heavy>
25

>  <SCORE.norm>
-1.76187

>  <RMSD>
6.465

$$$$
1q8n_lig
 OpenBabel11021811413D
libRbt.so/2013.1/901 2013/11/27
 25 27  0  0  0  0  0  0  0  0999 V2000
    1.8517   -2.6908   -0.8171 C   0  0  0  0  0  0  0  0  0  0  0  0
    2.2438   -3.8389   -1.9096 C   0  0  0  0  0  0  0  0  0  0  0  0
    1.4716   -4.2380    4.9173 N   0  0  0  0  0  0  0  0  0  0  0  0
    2.9991   -3.5985   -3.0081 C   0  0  0  0  0  0  0  0  0  0  0  0
    0.7993    3.0430   -2.2057 N   0  0  0  0  0  0  0  0  0  0  0  0
    3.3274   -4.6682   -3.9786 C   0  0  0  0  0  0  0  0  0  0  0  0
    2.8684   -5.9242   -3.7742 C   0  0  0  0  0  0  0  0  0  0  0  0
    2.0669   -6.2038   -2.6057 C   0  0  0  0  0  0  0  0  0  0  0  0
    1.7762   -5.2304   -1.7390 C   0  0  0  0  0  0  0  0  0  0  0  0
    1.7495   -3.1197    0.7532 C   0  0  0  0  0  0  0  0  0  0  0  0
    2.3853   -4.2133    1.2223 C   0  0  0  0  0  0  0  0  0  0  0  0
    2.3032   -4.6199    2.6527 C   0  0  0  0  0  0  0  0  0  0  0  0
    1.5746   -3.8825    3.5329 C   0  0  0  0  0  0  0  0  0  0  0  0
    0.8756   -2.6828    3.0350 C   0  0  0  0  0  0  0  0  0  0  0  0
    0.9587   -2.3322    1.7440 C   0  0  0  0  0  0  0  0  0  0  0  0
    1.5587   -1.1222   -1.2669 C   0  0  0  0  0  0  0  0  0  0  0  0
    1.2429   -0.0908   -0.2191 C   0  0  0  0  0  0  0  0  0  0  0  0
    1.0068    1.1906   -0.5137 C   0  0  0  0  0  0  0  0  0  0  0  0
    1.0436    1.6640   -1.9023 C   0  0  0  0  0  0  0  0  0  0  0  0
    1.3164    0.7775   -2.8822 C   0  0  0  0  0  0  0  0  0  0  0  0
    1.5850   -0.6650   -2.5629 C   0  0  0  0  0  0  0  0  0  0  0  0
    0.5982   -3.5508    5.8194 C   0  0  0  0  0  0  0  0  0  0  0  0
    2.2549   -5.3123    5.4440 C   0  0  0  0  0  0  0  0  0  0  0  0
    0.8360    3.5043   -3.5637 C   0  0  0  0  0  0  0  0  0  0  0  0
    0.5056    4.0000   -1.1629 C   0  0  0  0  0  0  0  0  0  0  0  0
  1  2  1  0  0  0  0
  1 10  1  0  0  0  0
  1 16  1  0  0  0  0
  2  4  2  0  0  0  0
  2  9  1  0  0  0  0
  4  6  1  0  0  0  0
  6  7  2  0  0  0  0
  7  8  1  0  0  0  0
  8  9  2  0  0  0  0
 10 11  2  0  0  0  0
 10 15  1  0  0  0  0
 11 12  1  0  0  0  0
 12 13  2  0  0  0  0
 13  3  1  0  0  0  0
 13 14  1  0  0  0  0
 14 15  2  0  0  0  0
 16 17  2  0  0  0  0
 16 21  1  0  0  0  0
 17 18  1  0  0  0  0
 18 19  2  0  0  0  0
 19  5  1  0  0  0  0
 19 20  1  0  0  0  0
 20 21  2  0  0  0  0
 22  3  1  0  0  0  0
 23  3  1  0  0  0  0
 24  5  1  0  0  0  0
 25  5  1  0  0  0  0
M  END
>  <CHROM.1>
-144.88715852,22.31745774,-178.09688951,-173.34458605,179.98547500,1.63049958
-2.10007822,-0.14621902,-1.28229176,1.31533322,-1.01938082

>  <Name>
1q8n_lig

>  <RI>
0

>  <Rbt.Current_Directory>
/home/itssahil/PROJECTS/Mol_Feturizer/New_Systems/rnas/1q8n

>  <Rbt.Executable>
rbdock ($Id: //depot/dev/client3/rdock/2013.1/src/exe/rbdock.cxx#4 $)

>  <Rbt.Library>
libRbt.so (2013.1, Build901 2013/11/27)

>  <Rbt.Parameter_File>
/export/apps/rDock/src/rDock_2013.1_src/data/scripts/dock_solv.prm

>  <Rbt.Receptor>
prm/pocket_docking_8.prm

>  <SCORE>
-43.8152

>  <SCORE.INTER>
-44.509

>  <SCORE.INTER.CONST>
1

>  <SCORE.INTER.POLAR>
0

>  <SCORE.INTER.ROT>
5

>  <SCORE.INTER.SOLV>
9.54728

>  <SCORE.INTER.VDW>
-39.7884

>  <SCORE.INTER.norm>
-1.78036

>  <SCORE.INTRA>
0.693791

>  <SCORE.INTRA.DIHEDRAL>
0.168931

>  <SCORE.INTRA.DIHEDRAL.0>
2.1627

>  <SCORE.INTRA.POLAR>
0

>  <SCORE.INTRA.POLAR.0>
0

>  <SCORE.INTRA.REPUL>
0

>  <SCORE.INTRA.REPUL.0>
0

>  <SCORE.INTRA.SOLV>
0.0481192

>  <SCORE.INTRA.SOLV.lig_0>
-5.95779

>  <SCORE.INTRA.VDW>
0.585266

>  <SCORE.INTRA.VDW.0>
3.81702

>  <SCORE.INTRA.norm>
0.0277517

>  <SCORE.RESTR>
0

>  <SCORE.RESTR.CAVITY>
0

>  <SCORE.RESTR.norm>
0

>  <SCORE.SYSTEM>
0

>  <SCORE.SYSTEM.CONST>
0

>  <SCORE.SYSTEM.DIHEDRAL>
0

>  <SCORE.SYSTEM.SOLV>
0

>  <SCORE.SYSTEM.norm>
0

>  <SCORE.heavy>
25

>  <SCORE.norm>
-1.75261

>  <RMSD>
6.474

$$$$
1q8n_lig
 OpenBabel11021811403D
libRbt.so/2013.1/901 2013/11/27
 25 27  0  0  0  0  0  0  0  0999 V2000
    1.7487   -2.6310   -0.6630 C   0  0  0  0  0  0  0  0  0  0  0  0
    2.0549   -3.7771   -1.7847 C   0  0  0  0  0  0  0  0  0  0  0  0
    1.5748   -4.2375    5.0650 N   0  0  0  0  0  0  0  0  0  0  0  0
    1.8149   -5.0960   -1.5905 C   0  0  0  0  0  0  0  0  0  0  0  0
    0.7725    3.0172   -2.4115 N   0  0  0  0  0  0  0  0  0  0  0  0
    2.1128   -6.1051   -2.6331 C   0  0  0  0  0  0  0  0  0  0  0  0
    2.6375   -5.7129   -3.8166 C   0  0  0  0  0  0  0  0  0  0  0  0
    2.8950   -4.3106   -4.0470 C   0  0  0  0  0  0  0  0  0  0  0  0
    2.6239   -3.4106   -3.0985 C   0  0  0  0  0  0  0  0  0  0  0  0
    1.7037   -3.0758    0.9055 C   0  0  0  0  0  0  0  0  0  0  0  0
    2.4946   -4.0626    1.3755 C   0  0  0  0  0  0  0  0  0  0  0  0
    2.4669   -4.4819    2.8043 C   0  0  0  0  0  0  0  0  0  0  0  0
    1.6307   -3.8658    3.6821 C   0  0  0  0  0  0  0  0  0  0  0  0
    0.7615   -2.7835    3.1832 C   0  0  0  0  0  0  0  0  0  0  0  0
    0.7978   -2.4199    1.8936 C   0  0  0  0  0  0  0  0  0  0  0  0
    1.4854   -1.0486   -1.0820 C   0  0  0  0  0  0  0  0  0  0  0  0
    1.4474   -0.6561   -2.5332 C   0  0  0  0  0  0  0  0  0  0  0  0
    1.2304    0.5984   -2.9376 C   0  0  0  0  0  0  0  0  0  0  0  0
    1.0151    1.6771   -1.9661 C   0  0  0  0  0  0  0  0  0  0  0  0
    1.0454    1.3797   -0.6504 C   0  0  0  0  0  0  0  0  0  0  0  0
    1.2869   -0.0270   -0.1840 C   0  0  0  0  0  0  0  0  0  0  0  0
    0.6786   -3.6112    5.9886 C   0  0  0  0  0  0  0  0  0  0  0  0
    2.4309   -5.2668    5.5680 C   0  0  0  0  0  0  0  0  0  0  0  0
    0.6090    4.0791   -1.4607 C   0  0  0  0  0  0  0  0  0  0  0  0
    0.6920    3.3371   -3.8189 C   0  0  0  0  0  0  0  0  0  0  0  0
  1  2  1  0  0  0  0
  1 10  1  0  0  0  0
  1 16  1  0  0  0  0
  2  4  2  0  0  0  0
  2  9  1  0  0  0  0
  4  6  1  0  0  0  0
  6  7  2  0  0  0  0
  7  8  1  0  0  0  0
  8  9  2  0  0  0  0
 10 11  2  0  0  0  0
 10 15  1  0  0  0  0
 11 12  1  0  0  0  0
 12 13  2  0  0  0  0
 13  3  1  0  0  0  0
 13 14  1  0  0  0  0
 14 15  2  0  0  0  0
 16 17  2  0  0  0  0
 16 21  1  0  0  0  0
 17 18  1  0  0  0  0
 18 19  2  0  0  0  0
 19  5  1  0  0  0  0
 19 20  1  0  0  0  0
 20 21  2  0  0  0  0
 22  3  1  0  0  0  0
 23  3  1  0  0  0  0
 24  5  1  0  0  0  0
 25  5  1  0  0  0  0
M  END
>  <CHROM.1>
24.10888219,33.19184509,3.52319254,-178.75684718,-177.80217731,1.58609087
-2.04968148,-0.11896670,-1.24383256,1.33757083,-1.12930384

>  <Name>
1q8n_lig

>  <RI>
0

>  <Rbt.Current_Directory>
/home/itssahil/PROJECTS/Mol_Feturizer/New_Systems/rnas/1q8n

>  <Rbt.Executable>
rbdock ($Id: //depot/dev/client3/rdock/2013.1/src/exe/rbdock.cxx#4 $)

>  <Rbt.Library>
libRbt.so (2013.1, Build901 2013/11/27)

>  <Rbt.Parameter_File>
/export/apps/rDock/src/rDock_2013.1_src/data/scripts/dock_solv.prm

>  <Rbt.Receptor>
prm/blind_docking_100.prm

>  <SCORE>
-43.5133

>  <SCORE.INTER>
-44.5357

>  <SCORE.INTER.CONST>
1

>  <SCORE.INTER.POLAR>
0

>  <SCORE.INTER.ROT>
5

>  <SCORE.INTER.SOLV>
9.29703

>  <SCORE.INTER.VDW>
-39.7228

>  <SCORE.INTER.norm>
-1.78143

>  <SCORE.INTRA>
0.595111

>  <SCORE.INTRA.DIHEDRAL>
0.0209187

>  <SCORE.INTRA.DIHEDRAL.0>
2.1627

>  <SCORE.INTRA.POLAR>
0

>  <SCORE.INTRA.POLAR.0>
0

>  <SCORE.INTRA.REPUL>
0

>  <SCORE.INTRA.REPUL.0>
0

>  <SCORE.INTRA.SOLV>
0.0482729

>  <SCORE.INTRA.SOLV.lig_0>
-5.95779

>  <SCORE.INTRA.VDW>
0.560516

>  <SCORE.INTRA.VDW.0>
3.81702

>  <SCORE.INTRA.norm>
0.0238045

>  <SCORE.RESTR>
0.427334

>  <SCORE.RESTR.CAVITY>
0.427334

>  <SCORE.RESTR.norm>
0.0170934

>  <SCORE.SYSTEM>
0

>  <SCORE.SYSTEM.CONST>
0

>  <SCORE.SYSTEM.DIHEDRAL>
0

>  <SCORE.SYSTEM.SOLV>
0

>  <SCORE.SYSTEM.norm>
0

>  <SCORE.heavy>
25

>  <SCORE.norm>
-1.74053

>  <RMSD>
6.476

$$$$
1q8n_lig
 OpenBabel11021811413D
libRbt.so/2013.1/901 2013/11/27
 25 27  0  0  0  0  0  0  0  0999 V2000
    1.7563   -2.7024   -0.7840 C   0  0  0  0  0  0  0  0  0  0  0  0
    2.1403   -3.8716   -1.8568 C   0  0  0  0  0  0  0  0  0  0  0  0
    1.3038   -4.2003    4.9582 N   0  0  0  0  0  0  0  0  0  0  0  0
    1.7749   -5.1679   -1.7123 C   0  0  0  0  0  0  0  0  0  0  0  0
    0.8317    3.0314   -2.2612 N   0  0  0  0  0  0  0  0  0  0  0  0
    2.1491   -6.1996   -2.7070 C   0  0  0  0  0  0  0  0  0  0  0  0
    2.8741   -5.8517   -3.7949 C   0  0  0  0  0  0  0  0  0  0  0  0
    3.2684   -4.4736   -3.9718 C   0  0  0  0  0  0  0  0  0  0  0  0
    2.9264   -3.5530   -3.0670 C   0  0  0  0  0  0  0  0  0  0  0  0
    1.6296   -3.1083    0.7906 C   0  0  0  0  0  0  0  0  0  0  0  0
    0.7600   -2.4782    1.6075 C   0  0  0  0  0  0  0  0  0  0  0  0
    0.6310   -2.8356    3.0475 C   0  0  0  0  0  0  0  0  0  0  0  0
    1.3986   -3.8244    3.5786 C   0  0  0  0  0  0  0  0  0  0  0  0
    2.3524   -4.5239    2.6971 C   0  0  0  0  0  0  0  0  0  0  0  0
    2.4571   -4.1883    1.4037 C   0  0  0  0  0  0  0  0  0  0  0  0
    1.4954   -1.1351   -1.2578 C   0  0  0  0  0  0  0  0  0  0  0  0
    1.2552   -0.0714   -0.2223 C   0  0  0  0  0  0  0  0  0  0  0  0
    1.0483    1.2103   -0.5366 C   0  0  0  0  0  0  0  0  0  0  0  0
    1.0440    1.6520   -1.9361 C   0  0  0  0  0  0  0  0  0  0  0  0
    1.2487    0.7360   -2.9054 C   0  0  0  0  0  0  0  0  0  0  0  0
    1.4838   -0.7072   -2.5640 C   0  0  0  0  0  0  0  0  0  0  0  0
    0.4161   -3.5443    5.8694 C   0  0  0  0  0  0  0  0  0  0  0  0
    2.1106   -5.2642    5.4706 C   0  0  0  0  0  0  0  0  0  0  0  0
    0.8788    3.4703   -3.6263 C   0  0  0  0  0  0  0  0  0  0  0  0
    0.5605    4.0112   -1.2336 C   0  0  0  0  0  0  0  0  0  0  0  0
  1  2  1  0  0  0  0
  1 10  1  0  0  0  0
  1 16  1  0  0  0  0
  2  4  2  0  0  0  0
  2  9  1  0  0  0  0
  4  6  1  0  0  0  0
  6  7  2  0  0  0  0
  7  8  1  0  0  0  0
  8  9  2  0  0  0  0
 10 11  2  0  0  0  0
 10 15  1  0  0  0  0
 11 12  1  0  0  0  0
 12 13  2  0  0  0  0
 13  3  1  0  0  0  0
 13 14  1  0  0  0  0
 14 15  2  0  0  0  0
 16 17  2  0  0  0  0
 16 21  1  0  0  0  0
 17 18  1  0  0  0  0
 18 19  2  0  0  0  0
 19  5  1  0  0  0  0
 19 20  1  0  0  0  0
 20 21  2  0  0  0  0
 22  3  1  0  0  0  0
 23  3  1  0  0  0  0
 24  5  1  0  0  0  0
 25  5  1  0  0  0  0
M  END
>  <CHROM.1>
31.80283168,-147.93390919,-175.00434500,-1.20962824,177.60233589,1.57479236
-2.09137289,-0.14784960,-1.37159722,1.30932633,-0.96298885

>  <Name>
1q8n_lig

>  <RI>
0

>  <Rbt.Current_Directory>
/home/itssahil/PROJECTS/Mol_Feturizer/New_Systems/rnas/1q8n

>  <Rbt.Executable>
rbdock ($Id: //depot/dev/client3/rdock/2013.1/src/exe/rbdock.cxx#4 $)

>  <Rbt.Library>
libRbt.so (2013.1, Build901 2013/11/27)

>  <Rbt.Parameter_File>
/export/apps/rDock/src/rDock_2013.1_src/data/scripts/dock_solv.prm

>  <Rbt.Receptor>
prm/pocket_docking_8.prm

>  <SCORE>
-44.5008

>  <SCORE.INTER>
-44.982

>  <SCORE.INTER.CONST>
1

>  <SCORE.INTER.POLAR>
0

>  <SCORE.INTER.ROT>
5

>  <SCORE.INTER.SOLV>
9.51681

>  <SCORE.INTER.VDW>
-40.0936

>  <SCORE.INTER.norm>
-1.79928

>  <SCORE.INTRA>
0.481239

>  <SCORE.INTRA.DIHEDRAL>
0.0269359

>  <SCORE.INTRA.DIHEDRAL.0>
2.1627

>  <SCORE.INTRA.POLAR>
0

>  <SCORE.INTRA.POLAR.0>
0

>  <SCORE.INTRA.REPUL>
0

>  <SCORE.INTRA.REPUL.0>
0

>  <SCORE.INTRA.SOLV>
0.0404726

>  <SCORE.INTRA.SOLV.lig_0>
-5.95779

>  <SCORE.INTRA.VDW>
0.447535

>  <SCORE.INTRA.VDW.0>
3.81702

>  <SCORE.INTRA.norm>
0.0192496

>  <SCORE.RESTR>
0

>  <SCORE.RESTR.CAVITY>
0

>  <SCORE.RESTR.norm>
0

>  <SCORE.SYSTEM>
0

>  <SCORE.SYSTEM.CONST>
0

>  <SCORE.SYSTEM.DIHEDRAL>
0

>  <SCORE.SYSTEM.SOLV>
0

>  <SCORE.SYSTEM.norm>
0

>  <SCORE.heavy>
25

>  <SCORE.norm>
-1.78003

>  <RMSD>
6.478

$$$$
1q8n_lig
 OpenBabel11021811403D
libRbt.so/2013.1/901 2013/11/27
 25 27  0  0  0  0  0  0  0  0999 V2000
    1.7918   -2.6707   -0.7888 C   0  0  0  0  0  0  0  0  0  0  0  0
    2.1884   -3.7652   -1.9334 C   0  0  0  0  0  0  0  0  0  0  0  0
    0.7378    2.9411   -2.4679 N   0  0  0  0  0  0  0  0  0  0  0  0
    2.8330   -3.4462   -3.0813 C   0  0  0  0  0  0  0  0  0  0  0  0
    1.5787   -4.3151    4.9700 N   0  0  0  0  0  0  0  0  0  0  0  0
    3.1694   -4.4698   -4.0976 C   0  0  0  0  0  0  0  0  0  0  0  0
    2.8310   -5.7624   -3.8863 C   0  0  0  0  0  0  0  0  0  0  0  0
    2.1492   -6.1253   -2.6659 C   0  0  0  0  0  0  0  0  0  0  0  0
    1.8498   -5.1930   -1.7581 C   0  0  0  0  0  0  0  0  0  0  0  0
    1.5045   -1.1340   -1.2540 C   0  0  0  0  0  0  0  0  0  0  0  0
    1.4098   -0.8044   -2.5589 C   0  0  0  0  0  0  0  0  0  0  0  0
    1.1479    0.5931   -3.0018 C   0  0  0  0  0  0  0  0  0  0  0  0
    0.9930    1.5843   -2.0837 C   0  0  0  0  0  0  0  0  0  0  0  0
    1.0917    1.2387   -0.6530 C   0  0  0  0  0  0  0  0  0  0  0  0
    1.3297   -0.0241   -0.2718 C   0  0  0  0  0  0  0  0  0  0  0  0
    1.6788   -3.0850    0.8126 C   0  0  0  0  0  0  0  0  0  0  0  0
    2.5157   -4.2111    1.3540 C   0  0  0  0  0  0  0  0  0  0  0  0
    2.4790   -4.5882    2.6350 C   0  0  0  0  0  0  0  0  0  0  0  0
    1.6019   -3.9092    3.5959 C   0  0  0  0  0  0  0  0  0  0  0  0
    0.8252   -2.8955    3.1604 C   0  0  0  0  0  0  0  0  0  0  0  0
    0.8591   -2.4619    1.7231 C   0  0  0  0  0  0  0  0  0  0  0  0
    0.6418    3.3417   -3.8385 C   0  0  0  0  0  0  0  0  0  0  0  0
    0.5679    3.9510   -1.4697 C   0  0  0  0  0  0  0  0  0  0  0  0
    2.5024   -5.3022    5.4503 C   0  0  0  0  0  0  0  0  0  0  0  0
    0.6369   -3.7430    5.9055 C   0  0  0  0  0  0  0  0  0  0  0  0
  1  2  1  0  0  0  0
  1 10  1  0  0  0  0
  1 16  1  0  0  0  0
  2  4  2  0  0  0  0
  2  9  1  0  0  0  0
  4  6  1  0  0  0  0
  6  7  2  0  0  0  0
  7  8  1  0  0  0  0
  8  9  2  0  0  0  0
 10 11  2  0  0  0  0
 10 15  1  0  0  0  0
 11 12  1  0  0  0  0
 12 13  2  0  0  0  0
 13  3  1  0  0  0  0
 13 14  1  0  0  0  0
 14 15  2  0  0  0  0
 16 17  2  0  0  0  0
 16 21  1  0  0  0  0
 17 18  1  0  0  0  0
 18 19  2  0  0  0  0
 19  5  1  0  0  0  0
 19 20  1  0  0  0  0
 20 21  2  0  0  0  0
 22  3  1  0  0  0  0
 23  3  1  0  0  0  0
 24  5  1  0  0  0  0
 25  5  1  0  0  0  0
M  END
>  <CHROM.1>
29.08761892,9.15541536,28.86529003,-0.57433102,5.95328687,1.62097350,-2.12077331
-0.19739918,-1.88895757,-1.31373823,2.03208620

>  <Name>
1q8n_lig

>  <RI>
0

>  <Rbt.Current_Directory>
/home/itssahil/PROJECTS/Mol_Feturizer/New_Systems/rnas/1q8n

>  <Rbt.Executable>
rbdock ($Id: //depot/dev/client3/rdock/2013.1/src/exe/rbdock.cxx#4 $)

>  <Rbt.Library>
libRbt.so (2013.1, Build901 2013/11/27)

>  <Rbt.Parameter_File>
/export/apps/rDock/src/rDock_2013.1_src/data/scripts/dock_solv.prm

>  <Rbt.Receptor>
prm/blind_docking_60.prm

>  <SCORE>
-43.7736

>  <SCORE.INTER>
-44.5794

>  <SCORE.INTER.CONST>
1

>  <SCORE.INTER.POLAR>
0

>  <SCORE.INTER.ROT>
5

>  <SCORE.INTER.SOLV>
9.43945

>  <SCORE.INTER.VDW>
-39.7994

>  <SCORE.INTER.norm>
-1.78318

>  <SCORE.INTRA>
0.554303

>  <SCORE.INTRA.DIHEDRAL>
0.133986

>  <SCORE.INTRA.DIHEDRAL.0>
2.1627

>  <SCORE.INTRA.POLAR>
0

>  <SCORE.INTRA.POLAR.0>
0

>  <SCORE.INTRA.REPUL>
0

>  <SCORE.INTRA.REPUL.0>
0

>  <SCORE.INTRA.SOLV>
0.0445155

>  <SCORE.INTRA.SOLV.lig_0>
-5.95779

>  <SCORE.INTRA.VDW>
0.465052

>  <SCORE.INTRA.VDW.0>
3.81702

>  <SCORE.INTRA.norm>
0.0221721

>  <SCORE.RESTR>
0.251538

>  <SCORE.RESTR.CAVITY>
0.251538

>  <SCORE.RESTR.norm>
0.0100615

>  <SCORE.SYSTEM>
0

>  <SCORE.SYSTEM.CONST>
0

>  <SCORE.SYSTEM.DIHEDRAL>
0

>  <SCORE.SYSTEM.SOLV>
0

>  <SCORE.SYSTEM.norm>
0

>  <SCORE.heavy>
25

>  <SCORE.norm>
-1.75094

>  <RMSD>
6.480

$$$$
1q8n_lig
 OpenBabel11021811403D
libRbt.so/2013.1/901 2013/11/27
 25 27  0  0  0  0  0  0  0  0999 V2000
    1.6781   -2.2471   -0.5938 C   0  0  0  0  0  0  0  0  0  0  0  0
    2.1719   -3.3620   -1.6794 C   0  0  0  0  0  0  0  0  0  0  0  0
    0.9045    3.3476   -2.4705 N   0  0  0  0  0  0  0  0  0  0  0  0
    2.9090   -3.0625   -2.7758 C   0  0  0  0  0  0  0  0  0  0  0  0
    0.5015   -3.4752    5.1526 N   0  0  0  0  0  0  0  0  0  0  0  0
    3.3320   -4.1042   -3.7400 C   0  0  0  0  0  0  0  0  0  0  0  0
    2.9811   -5.3940   -3.5319 C   0  0  0  0  0  0  0  0  0  0  0  0
    2.2011   -5.7362   -2.3655 C   0  0  0  0  0  0  0  0  0  0  0  0
    1.8242   -4.7876   -1.5045 C   0  0  0  0  0  0  0  0  0  0  0  0
    1.4638   -0.7126   -1.1033 C   0  0  0  0  0  0  0  0  0  0  0  0
    1.1671    0.2773   -0.2360 C   0  0  0  0  0  0  0  0  0  0  0  0
    0.9681    1.6838   -0.6833 C   0  0  0  0  0  0  0  0  0  0  0  0
    1.0861    2.0066   -1.9991 C   0  0  0  0  0  0  0  0  0  0  0  0
    1.4124    0.9351   -2.9590 C   0  0  0  0  0  0  0  0  0  0  0  0
    1.5865   -0.3260   -2.5395 C   0  0  0  0  0  0  0  0  0  0  0  0
    1.3961   -2.6390    0.9923 C   0  0  0  0  0  0  0  0  0  0  0  0
    0.6032   -1.7043    1.8636 C   0  0  0  0  0  0  0  0  0  0  0  0
    0.3328   -1.9651    3.1454 C   0  0  0  0  0  0  0  0  0  0  0  0
    0.8067   -3.2008    3.7796 C   0  0  0  0  0  0  0  0  0  0  0  0
    1.5283   -4.0714    3.0436 C   0  0  0  0  0  0  0  0  0  0  0  0
    1.8372   -3.7897    1.6013 C   0  0  0  0  0  0  0  0  0  0  0  0
    0.9499    3.6810   -3.8616 C   0  0  0  0  0  0  0  0  0  0  0  0
    0.6672    4.4098   -1.5428 C   0  0  0  0  0  0  0  0  0  0  0  0
    1.2396   -4.4715    5.8744 C   0  0  0  0  0  0  0  0  0  0  0  0
   -0.5451   -2.7589    5.8461 C   0  0  0  0  0  0  0  0  0  0  0  0
  1  2  1  0  0  0  0
  1 10  1  0  0  0  0
  1 16  1  0  0  0  0
  2  4  2  0  0  0  0
  2  9  1  0  0  0  0
  4  6  1  0  0  0  0
  6  7  2  0  0  0  0
  7  8  1  0  0  0  0
  8  9  2  0  0  0  0
 10 11  2  0  0  0  0
 10 15  1  0  0  0  0
 11 12  1  0  0  0  0
 12 13  2  0  0  0  0
 13  3  1  0  0  0  0
 13 14  1  0  0  0  0
 14 15  2  0  0  0  0
 16 17  2  0  0  0  0
 16 21  1  0  0  0  0
 17 18  1  0  0  0  0
 18 19  2  0  0  0  0
 19  5  1  0  0  0  0
 19 20  1  0  0  0  0
 20 21  2  0  0  0  0
 22  3  1  0  0  0  0
 23  3  1  0  0  0  0
 24  5  1  0  0  0  0
 25  5  1  0  0  0  0
M  END
>  <CHROM.1>
27.50215556,-174.34238491,-163.54012584,-176.26138550,-163.20322682,1.37613019
-1.60459302,-0.04351892,-1.42263095,-1.25120869,2.41791188

>  <Name>
1q8n_lig

>  <RI>
0

>  <Rbt.Current_Directory>
/home/itssahil/PROJECTS/Mol_Feturizer/New_Systems/rnas/1q8n

>  <Rbt.Executable>
rbdock ($Id: //depot/dev/client3/rdock/2013.1/src/exe/rbdock.cxx#4 $)

>  <Rbt.Library>
libRbt.so (2013.1, Build901 2013/11/27)

>  <Rbt.Parameter_File>
/export/apps/rDock/src/rDock_2013.1_src/data/scripts/dock_solv.prm

>  <Rbt.Receptor>
prm/blind_docking_60.prm

>  <SCORE>
-40.71

>  <SCORE.INTER>
-42.005

>  <SCORE.INTER.CONST>
1

>  <SCORE.INTER.POLAR>
0

>  <SCORE.INTER.ROT>
5

>  <SCORE.INTER.SOLV>
8.70549

>  <SCORE.INTER.VDW>
-37.8385

>  <SCORE.INTER.norm>
-1.6802

>  <SCORE.INTRA>
1.2319

>  <SCORE.INTRA.DIHEDRAL>
1.12111

>  <SCORE.INTRA.DIHEDRAL.0>
2.1627

>  <SCORE.INTRA.POLAR>
0

>  <SCORE.INTRA.POLAR.0>
0

>  <SCORE.INTRA.REPUL>
0

>  <SCORE.INTRA.REPUL.0>
0

>  <SCORE.INTRA.SOLV>
0.0584934

>  <SCORE.INTRA.SOLV.lig_0>
-5.95779

>  <SCORE.INTRA.VDW>
0.642102

>  <SCORE.INTRA.VDW.0>
3.81702

>  <SCORE.INTRA.norm>
0.0492761

>  <SCORE.RESTR>
0.0630707

>  <SCORE.RESTR.CAVITY>
0.0630707

>  <SCORE.RESTR.norm>
0.00252283

>  <SCORE.SYSTEM>
0

>  <SCORE.SYSTEM.CONST>
0

>  <SCORE.SYSTEM.DIHEDRAL>
0

>  <SCORE.SYSTEM.SOLV>
0

>  <SCORE.SYSTEM.norm>
0

>  <SCORE.heavy>
25

>  <SCORE.norm>
-1.6284

>  <RMSD>
6.480

$$$$
1q8n_lig
 OpenBabel11021811403D
libRbt.so/2013.1/901 2013/11/27
 25 27  0  0  0  0  0  0  0  0999 V2000
    1.8220   -2.7027   -0.7510 C   0  0  0  0  0  0  0  0  0  0  0  0
    2.2405   -3.8001   -1.8851 C   0  0  0  0  0  0  0  0  0  0  0  0
    0.7572    2.8948   -2.4703 N   0  0  0  0  0  0  0  0  0  0  0  0
    1.8880   -5.1067   -1.8270 C   0  0  0  0  0  0  0  0  0  0  0  0
    1.5392   -4.3240    5.0113 N   0  0  0  0  0  0  0  0  0  0  0  0
    2.2936   -6.0716   -2.8750 C   0  0  0  0  0  0  0  0  0  0  0  0
    3.0351   -5.6502   -3.9250 C   0  0  0  0  0  0  0  0  0  0  0  0
    3.4162   -4.2597   -4.0099 C   0  0  0  0  0  0  0  0  0  0  0  0
    3.0459   -3.3998   -3.0578 C   0  0  0  0  0  0  0  0  0  0  0  0
    1.5319   -1.1700   -1.2272 C   0  0  0  0  0  0  0  0  0  0  0  0
    1.4649   -0.8447   -2.5349 C   0  0  0  0  0  0  0  0  0  0  0  0
    1.2010    0.5492   -2.9878 C   0  0  0  0  0  0  0  0  0  0  0  0
    1.0156    1.5414   -2.0764 C   0  0  0  0  0  0  0  0  0  0  0  0
    1.0837    1.2004   -0.6428 C   0  0  0  0  0  0  0  0  0  0  0  0
    1.3240   -0.0591   -0.2525 C   0  0  0  0  0  0  0  0  0  0  0  0
    1.6899   -3.1104    0.8505 C   0  0  0  0  0  0  0  0  0  0  0  0
    2.5162   -4.2377    1.4055 C   0  0  0  0  0  0  0  0  0  0  0  0
    2.4641   -4.6096    2.6874 C   0  0  0  0  0  0  0  0  0  0  0  0
    1.5791   -3.9235    3.6360 C   0  0  0  0  0  0  0  0  0  0  0  0
    0.8112   -2.9086    3.1881 C   0  0  0  0  0  0  0  0  0  0  0  0
    0.8626   -2.4806    1.7497 C   0  0  0  0  0  0  0  0  0  0  0  0
    0.6675    3.2867   -3.8439 C   0  0  0  0  0  0  0  0  0  0  0  0
    0.5777    3.9101   -1.4793 C   0  0  0  0  0  0  0  0  0  0  0  0
    2.4392   -5.3286    5.5005 C   0  0  0  0  0  0  0  0  0  0  0  0
    0.6041   -3.7290    5.9392 C   0  0  0  0  0  0  0  0  0  0  0  0
  1  2  1  0  0  0  0
  1 10  1  0  0  0  0
  1 16  1  0  0  0  0
  2  4  2  0  0  0  0
  2  9  1  0  0  0  0
  4  6  1  0  0  0  0
  6  7  2  0  0  0  0
  7  8  1  0  0  0  0
  8  9  2  0  0  0  0
 10 11  2  0  0  0  0
 10 15  1  0  0  0  0
 11 12  1  0  0  0  0
 12 13  2  0  0  0  0
 13  3  1  0  0  0  0
 13 14  1  0  0  0  0
 14 15  2  0  0  0  0
 16 17  2  0  0  0  0
 16 21  1  0  0  0  0
 17 18  1  0  0  0  0
 18 19  2  0  0  0  0
 19  5  1  0  0  0  0
 19 20  1  0  0  0  0
 20 21  2  0  0  0  0
 22  3  1  0  0  0  0
 23  3  1  0  0  0  0
 24  5  1  0  0  0  0
 25  5  1  0  0  0  0
M  END
>  <CHROM.1>
-146.31623204,8.54678797,28.27742805,0.50495916,4.93513612,1.65792893,-2.12418918
-0.18451697,-1.81689250,-1.28818645,2.07967034

>  <Name>
1q8n_lig

>  <RI>
0

>  <Rbt.Current_Directory>
/home/itssahil/PROJECTS/Mol_Feturizer/New_Systems/rnas/1q8n

>  <Rbt.Executable>
rbdock ($Id: //depot/dev/client3/rdock/2013.1/src/exe/rbdock.cxx#4 $)

>  <Rbt.Library>
libRbt.so (2013.1, Build901 2013/11/27)

>  <Rbt.Parameter_File>
/export/apps/rDock/src/rDock_2013.1_src/data/scripts/dock_solv.prm

>  <Rbt.Receptor>
prm/blind_docking_60.prm

>  <SCORE>
-44.1434

>  <SCORE.INTER>
-44.9163

>  <SCORE.INTER.CONST>
1

>  <SCORE.INTER.POLAR>
0

>  <SCORE.INTER.ROT>
5

>  <SCORE.INTER.SOLV>
9.48451

>  <SCORE.INTER.VDW>
-40.039

>  <SCORE.INTER.norm>
-1.79665

>  <SCORE.INTRA>
0.475616

>  <SCORE.INTRA.DIHEDRAL>
0.0910019

>  <SCORE.INTRA.DIHEDRAL.0>
2.1627

>  <SCORE.INTRA.POLAR>
0

>  <SCORE.INTRA.POLAR.0>
0

>  <SCORE.INTRA.REPUL>
0

>  <SCORE.INTRA.REPUL.0>
0

>  <SCORE.INTRA.SOLV>
0.0417944

>  <SCORE.INTRA.SOLV.lig_0>
-5.95779

>  <SCORE.INTRA.VDW>
0.409218

>  <SCORE.INTRA.VDW.0>
3.81702

>  <SCORE.INTRA.norm>
0.0190246

>  <SCORE.RESTR>
0.297283

>  <SCORE.RESTR.CAVITY>
0.297283

>  <SCORE.RESTR.norm>
0.0118913

>  <SCORE.SYSTEM>
0

>  <SCORE.SYSTEM.CONST>
0

>  <SCORE.SYSTEM.DIHEDRAL>
0

>  <SCORE.SYSTEM.SOLV>
0

>  <SCORE.SYSTEM.norm>
0

>  <SCORE.heavy>
25

>  <SCORE.norm>
-1.76573

>  <RMSD>
6.482

$$$$
1q8n_lig
 OpenBabel11021811403D
libRbt.so/2013.1/901 2013/11/27
 25 27  0  0  0  0  0  0  0  0999 V2000
    1.7966   -2.5911   -0.6317 C   0  0  0  0  0  0  0  0  0  0  0  0
    2.1468   -3.7124   -1.7655 C   0  0  0  0  0  0  0  0  0  0  0  0
    1.4636   -4.3108    5.0563 N   0  0  0  0  0  0  0  0  0  0  0  0
    2.7800   -3.4271   -2.9284 C   0  0  0  0  0  0  0  0  0  0  0  0
    0.8335    3.0835   -2.3001 N   0  0  0  0  0  0  0  0  0  0  0  0
    3.0740   -4.4741   -3.9341 C   0  0  0  0  0  0  0  0  0  0  0  0
    2.7071   -5.7544   -3.6972 C   0  0  0  0  0  0  0  0  0  0  0  0
    2.0368   -6.0817   -2.4605 C   0  0  0  0  0  0  0  0  0  0  0  0
    1.7757   -5.1285   -1.5625 C   0  0  0  0  0  0  0  0  0  0  0  0
    1.7079   -3.0670    0.9258 C   0  0  0  0  0  0  0  0  0  0  0  0
    2.4477   -4.0974    1.3856 C   0  0  0  0  0  0  0  0  0  0  0  0
    2.3795   -4.5455    2.8041 C   0  0  0  0  0  0  0  0  0  0  0  0
    1.5572   -3.9124    3.6830 C   0  0  0  0  0  0  0  0  0  0  0  0
    0.7437   -2.7826    3.1954 C   0  0  0  0  0  0  0  0  0  0  0  0
    0.8160   -2.3934    1.9148 C   0  0  0  0  0  0  0  0  0  0  0  0
    1.5324   -1.0030   -1.0277 C   0  0  0  0  0  0  0  0  0  0  0  0
    1.5819   -0.5737   -2.4681 C   0  0  0  0  0  0  0  0  0  0  0  0
    1.3688    0.6870   -2.8547 C   0  0  0  0  0  0  0  0  0  0  0  0
    1.0710    1.7365   -1.8731 C   0  0  0  0  0  0  0  0  0  0  0  0
    1.0208    1.4057   -0.5659 C   0  0  0  0  0  0  0  0  0  0  0  0
    1.2571   -0.0085   -0.1197 C   0  0  0  0  0  0  0  0  0  0  0  0
    2.2593   -5.3686    5.6007 C   0  0  0  0  0  0  0  0  0  0  0  0
    0.5538   -3.6464    5.9372 C   0  0  0  0  0  0  0  0  0  0  0  0
    0.5760    4.1150   -1.3367 C   0  0  0  0  0  0  0  0  0  0  0  0
    0.8520    3.4408   -3.7006 C   0  0  0  0  0  0  0  0  0  0  0  0
  1  2  1  0  0  0  0
  1 10  1  0  0  0  0
  1 16  1  0  0  0  0
  2  4  2  0  0  0  0
  2  9  1  0  0  0  0
  4  6  1  0  0  0  0
  6  7  2  0  0  0  0
  7  8  1  0  0  0  0
  8  9  2  0  0  0  0
 10 11  2  0  0  0  0
 10 15  1  0  0  0  0
 11 12  1  0  0  0  0
 12 13  2  0  0  0  0
 13  3  1  0  0  0  0
 13 14  1  0  0  0  0
 14 15  2  0  0  0  0
 16 17  2  0  0  0  0
 16 21  1  0  0  0  0
 17 18  1  0  0  0  0
 18 19  2  0  0  0  0
 19  5  1  0  0  0  0
 19 20  1  0  0  0  0
 20 21  2  0  0  0  0
 22  3  1  0  0  0  0
 23  3  1  0  0  0  0
 24  5  1  0  0  0  0
 25  5  1  0  0  0  0
M  END
>  <CHROM.1>
-151.46536152,30.07845292,1.42699610,2.10375867,-178.41196657,1.59744584
-2.04688084,-0.05922799,-1.31791702,1.32817418,-1.01818771

>  <Name>
1q8n_lig

>  <RI>
0

>  <Rbt.Current_Directory>
/home/itssahil/PROJECTS/Mol_Feturizer/New_Systems/rnas/1q8n

>  <Rbt.Executable>
rbdock ($Id: //depot/dev/client3/rdock/2013.1/src/exe/rbdock.cxx#4 $)

>  <Rbt.Library>
libRbt.so (2013.1, Build901 2013/11/27)

>  <Rbt.Parameter_File>
/export/apps/rDock/src/rDock_2013.1_src/data/scripts/dock_solv.prm

>  <Rbt.Receptor>
prm/blind_docking_40.prm

>  <SCORE>
-44.2893

>  <SCORE.INTER>
-44.7897

>  <SCORE.INTER.CONST>
1

>  <SCORE.INTER.POLAR>
0

>  <SCORE.INTER.ROT>
5

>  <SCORE.INTER.SOLV>
9.45175

>  <SCORE.INTER.VDW>
-39.9437

>  <SCORE.INTER.norm>
-1.79159

>  <SCORE.INTRA>
0.500352

>  <SCORE.INTRA.DIHEDRAL>
0.0235038

>  <SCORE.INTRA.DIHEDRAL.0>
2.1627

>  <SCORE.INTRA.POLAR>
0

>  <SCORE.INTRA.POLAR.0>
0

>  <SCORE.INTRA.REPUL>
0

>  <SCORE.INTRA.REPUL.0>
0

>  <SCORE.INTRA.SOLV>
0.0472453

>  <SCORE.INTRA.SOLV.lig_0>
-5.95779

>  <SCORE.INTRA.VDW>
0.464978

>  <SCORE.INTRA.VDW.0>
3.81702

>  <SCORE.INTRA.norm>
0.0200141

>  <SCORE.RESTR>
0

>  <SCORE.RESTR.CAVITY>
0

>  <SCORE.RESTR.norm>
0

>  <SCORE.SYSTEM>
0

>  <SCORE.SYSTEM.CONST>
0

>  <SCORE.SYSTEM.DIHEDRAL>
0

>  <SCORE.SYSTEM.SOLV>
0

>  <SCORE.SYSTEM.norm>
0

>  <SCORE.heavy>
25

>  <SCORE.norm>
-1.77157

>  <RMSD>
6.483

$$$$
1q8n_lig
 OpenBabel11021811413D
libRbt.so/2013.1/901 2013/11/27
 25 27  0  0  0  0  0  0  0  0999 V2000
    1.3113   -1.8308   -0.1773 C   0  0  0  0  0  0  0  0  0  0  0  0
    1.6647   -3.1887   -1.0119 C   0  0  0  0  0  0  0  0  0  0  0  0
    0.3840   -2.2955    5.6832 N   0  0  0  0  0  0  0  0  0  0  0  0
    2.1739   -3.1834   -2.2671 C   0  0  0  0  0  0  0  0  0  0  0  0
    0.8849    3.6137   -2.6449 N   0  0  0  0  0  0  0  0  0  0  0  0
    2.4755   -4.4393   -2.9922 C   0  0  0  0  0  0  0  0  0  0  0  0
    2.2423   -5.6311   -2.3963 C   0  0  0  0  0  0  0  0  0  0  0  0
    1.7059   -5.6595   -1.0556 C   0  0  0  0  0  0  0  0  0  0  0  0
    1.4364   -4.5203   -0.4131 C   0  0  0  0  0  0  0  0  0  0  0  0
    1.0598   -1.9535    1.4295 C   0  0  0  0  0  0  0  0  0  0  0  0
    1.2444   -0.8976    2.2489 C   0  0  0  0  0  0  0  0  0  0  0  0
    1.0196   -0.9914    3.7181 C   0  0  0  0  0  0  0  0  0  0  0  0
    0.6134   -2.1637    4.2748 C   0  0  0  0  0  0  0  0  0  0  0  0
    0.4053   -3.3264    3.3911 C   0  0  0  0  0  0  0  0  0  0  0  0
    0.6140   -3.2251    2.0710 C   0  0  0  0  0  0  0  0  0  0  0  0
    1.2035   -0.3529   -0.9210 C   0  0  0  0  0  0  0  0  0  0  0  0
    0.7456    0.8464   -0.1376 C   0  0  0  0  0  0  0  0  0  0  0  0
    0.6462    2.0657   -0.6741 C   0  0  0  0  0  0  0  0  0  0  0  0
    0.9848    2.2994   -2.0828 C   0  0  0  0  0  0  0  0  0  0  0  0
    1.3955    1.2554   -2.8324 C   0  0  0  0  0  0  0  0  0  0  0  0
    1.5125   -0.1194   -2.2398 C   0  0  0  0  0  0  0  0  0  0  0  0
    1.3500   -1.8849    6.6562 C   0  0  0  0  0  0  0  0  0  0  0  0
   -0.8432   -2.8516    6.1627 C   0  0  0  0  0  0  0  0  0  0  0  0
    0.9105    3.7979   -4.0675 C   0  0  0  0  0  0  0  0  0  0  0  0
    0.7505    4.7813   -1.8034 C   0  0  0  0  0  0  0  0  0  0  0  0
  1  2  1  0  0  0  0
  1 10  1  0  0  0  0
  1 16  1  0  0  0  0
  2  4  2  0  0  0  0
  2  9  1  0  0  0  0
  4  6  1  0  0  0  0
  6  7  2  0  0  0  0
  7  8  1  0  0  0  0
  8  9  2  0  0  0  0
 10 11  2  0  0  0  0
 10 15  1  0  0  0  0
 11 12  1  0  0  0  0
 12 13  2  0  0  0  0
 13  3  1  0  0  0  0
 13 14  1  0  0  0  0
 14 15  2  0  0  0  0
 16 17  2  0  0  0  0
 16 21  1  0  0  0  0
 17 18  1  0  0  0  0
 18 19  2  0  0  0  0
 19  5  1  0  0  0  0
 19 20  1  0  0  0  0
 20 21  2  0  0  0  0
 22  3  1  0  0  0  0
 23  3  1  0  0  0  0
 24  5  1  0  0  0  0
 25  5  1  0  0  0  0
M  END
>  <CHROM.1>
-165.07027058,155.65457131,174.08034435,-50.83216697,-165.51953694,1.09893575
-1.13240462,0.35826879,-1.31996719,-1.35926755,2.46865598

>  <Name>
1q8n_lig

>  <RI>
0

>  <Rbt.Current_Directory>
/home/itssahil/PROJECTS/Mol_Feturizer/New_Systems/rnas/1q8n

>  <Rbt.Executable>
rbdock ($Id: //depot/dev/client3/rdock/2013.1/src/exe/rbdock.cxx#4 $)

>  <Rbt.Library>
libRbt.so (2013.1, Build901 2013/11/27)

>  <Rbt.Parameter_File>
/export/apps/rDock/src/rDock_2013.1_src/data/scripts/dock_solv.prm

>  <Rbt.Receptor>
prm/pocket_docking_6.prm

>  <SCORE>
-32.1333

>  <SCORE.INTER>
-35.3287

>  <SCORE.INTER.CONST>
1

>  <SCORE.INTER.POLAR>
0

>  <SCORE.INTER.ROT>
5

>  <SCORE.INTER.SOLV>
8.69016

>  <SCORE.INTER.VDW>
-33.3825

>  <SCORE.INTER.norm>
-1.41315

>  <SCORE.INTRA>
3.12859

>  <SCORE.INTRA.DIHEDRAL>
8.4885

>  <SCORE.INTRA.DIHEDRAL.0>
2.1627

>  <SCORE.INTRA.POLAR>
0

>  <SCORE.INTRA.POLAR.0>
0

>  <SCORE.INTRA.REPUL>
0

>  <SCORE.INTRA.REPUL.0>
0

>  <SCORE.INTRA.SOLV>
0.064701

>  <SCORE.INTRA.SOLV.lig_0>
-5.95779

>  <SCORE.INTRA.VDW>
-1.14801

>  <SCORE.INTRA.VDW.0>
3.81702

>  <SCORE.INTRA.norm>
0.125144

>  <SCORE.RESTR>
0.0668198

>  <SCORE.RESTR.CAVITY>
0.0668198

>  <SCORE.RESTR.norm>
0.00267279

>  <SCORE.SYSTEM>
0

>  <SCORE.SYSTEM.CONST>
0

>  <SCORE.SYSTEM.DIHEDRAL>
0

>  <SCORE.SYSTEM.SOLV>
0

>  <SCORE.SYSTEM.norm>
0

>  <SCORE.heavy>
25

>  <SCORE.norm>
-1.28533

>  <RMSD>
6.487

$$$$
1q8n_lig
 OpenBabel11021811403D
libRbt.so/2013.1/901 2013/11/27
 25 27  0  0  0  0  0  0  0  0999 V2000
    1.8014   -2.6274   -0.6564 C   0  0  0  0  0  0  0  0  0  0  0  0
    2.1290   -3.7708   -1.7748 C   0  0  0  0  0  0  0  0  0  0  0  0
    1.5953   -4.2327    5.0710 N   0  0  0  0  0  0  0  0  0  0  0  0
    1.8152   -5.0794   -1.6200 C   0  0  0  0  0  0  0  0  0  0  0  0
    0.7876    3.0106   -2.4163 N   0  0  0  0  0  0  0  0  0  0  0  0
    2.1355   -6.0866   -2.6577 C   0  0  0  0  0  0  0  0  0  0  0  0
    2.7569   -5.7031   -3.7965 C   0  0  0  0  0  0  0  0  0  0  0  0
    3.0944   -4.3115   -3.9848 C   0  0  0  0  0  0  0  0  0  0  0  0
    2.8020   -3.4133   -3.0410 C   0  0  0  0  0  0  0  0  0  0  0  0
    1.7471   -3.0722    0.9119 C   0  0  0  0  0  0  0  0  0  0  0  0
    2.4396   -4.1396    1.3606 C   0  0  0  0  0  0  0  0  0  0  0  0
    2.4018   -4.5601    2.7887 C   0  0  0  0  0  0  0  0  0  0  0  0
    1.6572   -3.8627    3.6879 C   0  0  0  0  0  0  0  0  0  0  0  0
    0.8963   -2.6918    3.2125 C   0  0  0  0  0  0  0  0  0  0  0  0
    0.9401   -2.3282    1.9231 C   0  0  0  0  0  0  0  0  0  0  0  0
    1.5260   -1.0480   -1.0783 C   0  0  0  0  0  0  0  0  0  0  0  0
    1.5168   -0.6526   -2.5293 C   0  0  0  0  0  0  0  0  0  0  0  0
    1.2918    0.5996   -2.9362 C   0  0  0  0  0  0  0  0  0  0  0  0
    1.0385    1.6729   -1.9679 C   0  0  0  0  0  0  0  0  0  0  0  0
    1.0417    1.3730   -0.6524 C   0  0  0  0  0  0  0  0  0  0  0  0
    1.2919   -0.0313   -0.1833 C   0  0  0  0  0  0  0  0  0  0  0  0
    2.4577   -5.2258    5.6353 C   0  0  0  0  0  0  0  0  0  0  0  0
    0.6506   -3.6045    5.9416 C   0  0  0  0  0  0  0  0  0  0  0  0
    0.7092    3.3026   -3.8188 C   0  0  0  0  0  0  0  0  0  0  0  0
    0.6019    4.0941   -1.4777 C   0  0  0  0  0  0  0  0  0  0  0  0
  1  2  1  0  0  0  0
  1 10  1  0  0  0  0
  1 16  1  0  0  0  0
  2  4  2  0  0  0  0
  2  9  1  0  0  0  0
  4  6  1  0  0  0  0
  6  7  2  0  0  0  0
  7  8  1  0  0  0  0
  8  9  2  0  0  0  0
 10 11  2  0  0  0  0
 10 15  1  0  0  0  0
 11 12  1  0  0  0  0
 12 13  2  0  0  0  0
 13  3  1  0  0  0  0
 13 14  1  0  0  0  0
 14 15  2  0  0  0  0
 16 17  2  0  0  0  0
 16 21  1  0  0  0  0
 17 18  1  0  0  0  0
 18 19  2  0  0  0  0
 19  5  1  0  0  0  0
 19 20  1  0  0  0  0
 20 21  2  0  0  0  0
 22  3  1  0  0  0  0
 23  3  1  0  0  0  0
 24  5  1  0  0  0  0
 25  5  1  0  0  0  0
M  END
>  <CHROM.1>
28.89133585,26.24386603,2.62984446,9.51806581,3.39330367,1.62951717,-2.04550030
-0.11297409,-1.26353734,1.32597379,-1.10959453

>  <Name>
1q8n_lig

>  <RI>
0

>  <Rbt.Current_Directory>
/home/itssahil/PROJECTS/Mol_Feturizer/New_Systems/rnas/1q8n

>  <Rbt.Executable>
rbdock ($Id: //depot/dev/client3/rdock/2013.1/src/exe/rbdock.cxx#4 $)

>  <Rbt.Library>
libRbt.so (2013.1, Build901 2013/11/27)

>  <Rbt.Parameter_File>
/export/apps/rDock/src/rDock_2013.1_src/data/scripts/dock_solv.prm

>  <Rbt.Receptor>
prm/blind_docking_100.prm

>  <SCORE>
-43.5118

>  <SCORE.INTER>
-44.4986

>  <SCORE.INTER.CONST>
1

>  <SCORE.INTER.POLAR>
0

>  <SCORE.INTER.ROT>
5

>  <SCORE.INTER.SOLV>
9.30377

>  <SCORE.INTER.VDW>
-39.7003

>  <SCORE.INTER.norm>
-1.77994

>  <SCORE.INTRA>
0.577263

>  <SCORE.INTRA.DIHEDRAL>
0.391154

>  <SCORE.INTRA.DIHEDRAL.0>
2.1627

>  <SCORE.INTRA.POLAR>
0

>  <SCORE.INTRA.POLAR.0>
0

>  <SCORE.INTRA.REPUL>
0

>  <SCORE.INTRA.REPUL.0>
0

>  <SCORE.INTRA.SOLV>
0.0506453

>  <SCORE.INTRA.SOLV.lig_0>
-5.95779

>  <SCORE.INTRA.VDW>
0.356364

>  <SCORE.INTRA.VDW.0>
3.81702

>  <SCORE.INTRA.norm>
0.0230905

>  <SCORE.RESTR>
0.409547

>  <SCORE.RESTR.CAVITY>
0.409547

>  <SCORE.RESTR.norm>
0.0163819

>  <SCORE.SYSTEM>
0

>  <SCORE.SYSTEM.CONST>
0

>  <SCORE.SYSTEM.DIHEDRAL>
0

>  <SCORE.SYSTEM.SOLV>
0

>  <SCORE.SYSTEM.norm>
0

>  <SCORE.heavy>
25

>  <SCORE.norm>
-1.74047

>  <RMSD>
6.488

$$$$
1q8n_lig
 OpenBabel11021811403D
libRbt.so/2013.1/901 2013/11/27
 25 27  0  0  0  0  0  0  0  0999 V2000
    1.9256   -2.7760   -0.7769 C   0  0  0  0  0  0  0  0  0  0  0  0
    2.3075   -3.8251   -1.9681 C   0  0  0  0  0  0  0  0  0  0  0  0
    0.7952    2.8836   -2.2305 N   0  0  0  0  0  0  0  0  0  0  0  0
    3.0091   -3.4777   -3.0736 C   0  0  0  0  0  0  0  0  0  0  0  0
    1.4769   -4.3085    4.9992 N   0  0  0  0  0  0  0  0  0  0  0  0
    3.3298   -4.4600   -4.1348 C   0  0  0  0  0  0  0  0  0  0  0  0
    2.9186   -5.7426   -4.0090 C   0  0  0  0  0  0  0  0  0  0  0  0
    2.1750   -6.1358   -2.8350 C   0  0  0  0  0  0  0  0  0  0  0  0
    1.8904   -5.2405   -1.8860 C   0  0  0  0  0  0  0  0  0  0  0  0
    1.6179   -1.2259   -1.1802 C   0  0  0  0  0  0  0  0  0  0  0  0
    1.6339   -0.8217   -2.4673 C   0  0  0  0  0  0  0  0  0  0  0  0
    1.3554    0.5893   -2.8539 C   0  0  0  0  0  0  0  0  0  0  0  0
    1.0710    1.5165   -1.9007 C   0  0  0  0  0  0  0  0  0  0  0  0
    1.0476    1.0889   -0.4891 C   0  0  0  0  0  0  0  0  0  0  0  0
    1.3025   -0.1848   -0.1585 C   0  0  0  0  0  0  0  0  0  0  0  0
    1.8474   -3.2490    0.8102 C   0  0  0  0  0  0  0  0  0  0  0  0
    1.1022   -2.4038    1.8061 C   0  0  0  0  0  0  0  0  0  0  0  0
    0.9935   -2.7330    3.0961 C   0  0  0  0  0  0  0  0  0  0  0  0
    1.6091   -3.9597    3.6156 C   0  0  0  0  0  0  0  0  0  0  0  0
    2.2949   -4.7511    2.7647 C   0  0  0  0  0  0  0  0  0  0  0  0
    2.4225   -4.3921    1.3123 C   0  0  0  0  0  0  0  0  0  0  0  0
    0.4956    3.8647   -1.2323 C   0  0  0  0  0  0  0  0  0  0  0  0
    0.8138    3.3118   -3.5948 C   0  0  0  0  0  0  0  0  0  0  0  0
    2.2771   -5.3578    5.5622 C   0  0  0  0  0  0  0  0  0  0  0  0
    0.5464   -3.6161    5.8618 C   0  0  0  0  0  0  0  0  0  0  0  0
  1  2  1  0  0  0  0
  1 10  1  0  0  0  0
  1 16  1  0  0  0  0
  2  4  2  0  0  0  0
  2  9  1  0  0  0  0
  4  6  1  0  0  0  0
  6  7  2  0  0  0  0
  7  8  1  0  0  0  0
  8  9  2  0  0  0  0
 10 11  2  0  0  0  0
 10 15  1  0  0  0  0
 11 12  1  0  0  0  0
 12 13  2  0  0  0  0
 13  3  1  0  0  0  0
 13 14  1  0  0  0  0
 14 15  2  0  0  0  0
 16 17  2  0  0  0  0
 16 21  1  0  0  0  0
 17 18  1  0  0  0  0
 18 19  2  0  0  0  0
 19  5  1  0  0  0  0
 19 20  1  0  0  0  0
 20 21  2  0  0  0  0
 22  3  1  0  0  0  0
 23  3  1  0  0  0  0
 24  5  1  0  0  0  0
 25  5  1  0  0  0  0
M  END
>  <CHROM.1>
33.86861983,2.10825055,-161.25025061,-179.97572551,-168.18209240,1.67099857
-2.16517417,-0.14507476,-1.80138444,-1.30653094,2.11043734

>  <Name>
1q8n_lig

>  <RI>
0

>  <Rbt.Current_Directory>
/home/itssahil/PROJECTS/Mol_Feturizer/New_Systems/rnas/1q8n

>  <Rbt.Executable>
rbdock ($Id: //depot/dev/client3/rdock/2013.1/src/exe/rbdock.cxx#4 $)

>  <Rbt.Library>
libRbt.so (2013.1, Build901 2013/11/27)

>  <Rbt.Parameter_File>
/export/apps/rDock/src/rDock_2013.1_src/data/scripts/dock_solv.prm

>  <Rbt.Receptor>
prm/blind_docking_40.prm

>  <SCORE>
-44.8702

>  <SCORE.INTER>
-45.8521

>  <SCORE.INTER.CONST>
1

>  <SCORE.INTER.POLAR>
0

>  <SCORE.INTER.ROT>
5

>  <SCORE.INTER.SOLV>
9.52075

>  <SCORE.INTER.VDW>
-40.675

>  <SCORE.INTER.norm>
-1.83409

>  <SCORE.INTRA>
0.981951

>  <SCORE.INTRA.DIHEDRAL>
0.534604

>  <SCORE.INTRA.DIHEDRAL.0>
2.1627

>  <SCORE.INTRA.POLAR>
0

>  <SCORE.INTRA.POLAR.0>
0

>  <SCORE.INTRA.REPUL>
0

>  <SCORE.INTRA.REPUL.0>
0

>  <SCORE.INTRA.SOLV>
0.0518879

>  <SCORE.INTRA.SOLV.lig_0>
-5.95779

>  <SCORE.INTRA.VDW>
0.688705

>  <SCORE.INTRA.VDW.0>
3.81702

>  <SCORE.INTRA.norm>
0.039278

>  <SCORE.RESTR>
0

>  <SCORE.RESTR.CAVITY>
0

>  <SCORE.RESTR.norm>
0

>  <SCORE.SYSTEM>
0

>  <SCORE.SYSTEM.CONST>
0

>  <SCORE.SYSTEM.DIHEDRAL>
0

>  <SCORE.SYSTEM.SOLV>
0

>  <SCORE.SYSTEM.norm>
0

>  <SCORE.heavy>
25

>  <SCORE.norm>
-1.79481

>  <RMSD>
6.488

$$$$
1q8n_lig
 OpenBabel11021811403D
libRbt.so/2013.1/901 2013/11/27
 25 27  0  0  0  0  0  0  0  0999 V2000
    1.8055   -2.5854   -0.6899 C   0  0  0  0  0  0  0  0  0  0  0  0
    2.1699   -3.7163   -1.8097 C   0  0  0  0  0  0  0  0  0  0  0  0
    1.4873   -4.2394    5.0184 N   0  0  0  0  0  0  0  0  0  0  0  0
    2.8330   -3.4437   -2.9590 C   0  0  0  0  0  0  0  0  0  0  0  0
    0.7713    3.0557   -2.4279 N   0  0  0  0  0  0  0  0  0  0  0  0
    3.1391   -4.4989   -3.9523 C   0  0  0  0  0  0  0  0  0  0  0  0
    2.7533   -5.7741   -3.7176 C   0  0  0  0  0  0  0  0  0  0  0  0
    2.0511   -6.0878   -2.4952 C   0  0  0  0  0  0  0  0  0  0  0  0
    1.7793   -5.1273   -1.6083 C   0  0  0  0  0  0  0  0  0  0  0  0
    1.7208   -3.0433    0.8732 C   0  0  0  0  0  0  0  0  0  0  0  0
    2.4718   -4.0597    1.3459 C   0  0  0  0  0  0  0  0  0  0  0  0
    2.4075   -4.4912    2.7698 C   0  0  0  0  0  0  0  0  0  0  0  0
    1.5775   -3.8567    3.6403 C   0  0  0  0  0  0  0  0  0  0  0  0
    0.7518   -2.7421    3.1385 C   0  0  0  0  0  0  0  0  0  0  0  0
    0.8207   -2.3677    1.8533 C   0  0  0  0  0  0  0  0  0  0  0  0
    1.5228   -1.0055   -1.1056 C   0  0  0  0  0  0  0  0  0  0  0  0
    1.5390   -0.5992   -2.5534 C   0  0  0  0  0  0  0  0  0  0  0  0
    1.3097    0.6538   -2.9554 C   0  0  0  0  0  0  0  0  0  0  0  0
    1.0263    1.7172   -1.9845 C   0  0  0  0  0  0  0  0  0  0  0  0
    1.0061    1.4072   -0.6715 C   0  0  0  0  0  0  0  0  0  0  0  0
    1.2607    0.0019   -0.2079 C   0  0  0  0  0  0  0  0  0  0  0  0
    2.3420   -5.2335    5.5926 C   0  0  0  0  0  0  0  0  0  0  0  0
    0.5207   -3.6236    5.8737 C   0  0  0  0  0  0  0  0  0  0  0  0
    0.6593    3.3469   -3.8282 C   0  0  0  0  0  0  0  0  0  0  0  0
    0.6146    4.1410   -1.4860 C   0  0  0  0  0  0  0  0  0  0  0  0
  1  2  1  0  0  0  0
  1 10  1  0  0  0  0
  1 16  1  0  0  0  0
  2  4  2  0  0  0  0
  2  9  1  0  0  0  0
  4  6  1  0  0  0  0
  6  7  2  0  0  0  0
  7  8  1  0  0  0  0
  8  9  2  0  0  0  0
 10 11  2  0  0  0  0
 10 15  1  0  0  0  0
 11 12  1  0  0  0  0
 12 13  2  0  0  0  0
 13  3  1  0  0  0  0
 13 14  1  0  0  0  0
 14 15  2  0  0  0  0
 16 17  2  0  0  0  0
 16 21  1  0  0  0  0
 17 18  1  0  0  0  0
 18 19  2  0  0  0  0
 19  5  1  0  0  0  0
 19 20  1  0  0  0  0
 20 21  2  0  0  0  0
 22  3  1  0  0  0  0
 23  3  1  0  0  0  0
 24  5  1  0  0  0  0
 25  5  1  0  0  0  0
M  END
>  <CHROM.1>
-149.61089226,30.04006492,2.76140891,5.40088345,6.16343389,1.59676179,-2.03697875
-0.12478101,-1.28943073,1.31923587,-1.05855694

>  <Name>
1q8n_lig

>  <RI>
0

>  <Rbt.Current_Directory>
/home/itssahil/PROJECTS/Mol_Feturizer/New_Systems/rnas/1q8n

>  <Rbt.Executable>
rbdock ($Id: //depot/dev/client3/rdock/2013.1/src/exe/rbdock.cxx#4 $)

>  <Rbt.Library>
libRbt.so (2013.1, Build901 2013/11/27)

>  <Rbt.Parameter_File>
/export/apps/rDock/src/rDock_2013.1_src/data/scripts/dock_solv.prm

>  <Rbt.Receptor>
prm/blind_docking_20.prm

>  <SCORE>
-43.2438

>  <SCORE.INTER>
-44.2324

>  <SCORE.INTER.CONST>
1

>  <SCORE.INTER.POLAR>
0

>  <SCORE.INTER.ROT>
5

>  <SCORE.INTER.SOLV>
9.32187

>  <SCORE.INTER.VDW>
-39.5289

>  <SCORE.INTER.norm>
-1.7693

>  <SCORE.INTRA>
0.416774

>  <SCORE.INTRA.DIHEDRAL>
0.257051

>  <SCORE.INTRA.DIHEDRAL.0>
2.1627

>  <SCORE.INTRA.POLAR>
0

>  <SCORE.INTRA.POLAR.0>
0

>  <SCORE.INTRA.REPUL>
0

>  <SCORE.INTRA.REPUL.0>
0

>  <SCORE.INTRA.SOLV>
0.044951

>  <SCORE.INTRA.SOLV.lig_0>
-5.95779

>  <SCORE.INTRA.VDW>
0.265773

>  <SCORE.INTRA.VDW.0>
3.81702

>  <SCORE.INTRA.norm>
0.0166709

>  <SCORE.RESTR>
0.57181

>  <SCORE.RESTR.CAVITY>
0.57181

>  <SCORE.RESTR.norm>
0.0228724

>  <SCORE.SYSTEM>
0

>  <SCORE.SYSTEM.CONST>
0

>  <SCORE.SYSTEM.DIHEDRAL>
0

>  <SCORE.SYSTEM.SOLV>
0

>  <SCORE.SYSTEM.norm>
0

>  <SCORE.heavy>
25

>  <SCORE.norm>
-1.72975

>  <RMSD>
6.489

$$$$
1q8n_lig
 OpenBabel11021811403D
libRbt.so/2013.1/901 2013/11/27
 25 27  0  0  0  0  0  0  0  0999 V2000
    1.8723   -2.7690   -1.0022 C   0  0  0  0  0  0  0  0  0  0  0  0
    2.3209   -3.8391   -2.1507 C   0  0  0  0  0  0  0  0  0  0  0  0
    0.6172    2.8099   -2.6523 N   0  0  0  0  0  0  0  0  0  0  0  0
    3.0707   -3.5078   -3.2292 C   0  0  0  0  0  0  0  0  0  0  0  0
    1.2942   -4.1564    4.7989 N   0  0  0  0  0  0  0  0  0  0  0  0
    3.4514   -4.5091   -4.2521 C   0  0  0  0  0  0  0  0  0  0  0  0
    3.0476   -5.7932   -4.1177 C   0  0  0  0  0  0  0  0  0  0  0  0
    2.2532   -6.1693   -2.9718 C   0  0  0  0  0  0  0  0  0  0  0  0
    1.9148   -5.2570   -2.0573 C   0  0  0  0  0  0  0  0  0  0  0  0
    1.5292   -1.2415   -1.4596 C   0  0  0  0  0  0  0  0  0  0  0  0
    1.2659   -0.9396   -2.7480 C   0  0  0  0  0  0  0  0  0  0  0  0
    0.9507    0.4492   -3.1835 C   0  0  0  0  0  0  0  0  0  0  0  0
    0.9182    1.4605   -2.2750 C   0  0  0  0  0  0  0  0  0  0  0  0
    1.2019    1.1454   -0.8621 C   0  0  0  0  0  0  0  0  0  0  0  0
    1.4856   -0.1099   -0.4875 C   0  0  0  0  0  0  0  0  0  0  0  0
    1.7621   -3.1987    0.5952 C   0  0  0  0  0  0  0  0  0  0  0  0
    0.9181   -2.3801    1.5329 C   0  0  0  0  0  0  0  0  0  0  0  0
    0.7795   -2.6776    2.8277 C   0  0  0  0  0  0  0  0  0  0  0  0
    1.4587   -3.8405    3.4109 C   0  0  0  0  0  0  0  0  0  0  0  0
    2.2336   -4.6054    2.6141 C   0  0  0  0  0  0  0  0  0  0  0  0
    2.3956   -4.2816    1.1567 C   0  0  0  0  0  0  0  0  0  0  0  0
    0.3410    3.1808   -4.0068 C   0  0  0  0  0  0  0  0  0  0  0  0
    0.5834    3.8424   -1.6633 C   0  0  0  0  0  0  0  0  0  0  0  0
    0.3333   -3.4483    5.5949 C   0  0  0  0  0  0  0  0  0  0  0  0
    2.0799   -5.1922    5.4309 C   0  0  0  0  0  0  0  0  0  0  0  0
  1  2  1  0  0  0  0
  1 10  1  0  0  0  0
  1 16  1  0  0  0  0
  2  4  2  0  0  0  0
  2  9  1  0  0  0  0
  4  6  1  0  0  0  0
  6  7  2  0  0  0  0
  7  8  1  0  0  0  0
  8  9  2  0  0  0  0
 10 11  2  0  0  0  0
 10 15  1  0  0  0  0
 11 12  1  0  0  0  0
 12 13  2  0  0  0  0
 13  3  1  0  0  0  0
 13 14  1  0  0  0  0
 14 15  2  0  0  0  0
 16 17  2  0  0  0  0
 16 21  1  0  0  0  0
 17 18  1  0  0  0  0
 18 19  2  0  0  0  0
 19  5  1  0  0  0  0
 19 20  1  0  0  0  0
 20 21  2  0  0  0  0
 22  3  1  0  0  0  0
 23  3  1  0  0  0  0
 24  5  1  0  0  0  0
 25  5  1  0  0  0  0
M  END
>  <CHROM.1>
35.49945336,17.64377787,-158.82327901,-0.42698540,8.08270652,1.58060566,-2.14920098
-0.39470368,-1.78833502,-1.27603860,2.09665993

>  <Name>
1q8n_lig

>  <RI>
0

>  <Rbt.Current_Directory>
/home/itssahil/PROJECTS/Mol_Feturizer/New_Systems/rnas/1q8n

>  <Rbt.Executable>
rbdock ($Id: //depot/dev/client3/rdock/2013.1/src/exe/rbdock.cxx#4 $)

>  <Rbt.Library>
libRbt.so (2013.1, Build901 2013/11/27)

>  <Rbt.Parameter_File>
/export/apps/rDock/src/rDock_2013.1_src/data/scripts/dock_solv.prm

>  <Rbt.Receptor>
prm/blind_docking_60.prm

>  <SCORE>
-44.9923

>  <SCORE.INTER>
-45.4098

>  <SCORE.INTER.CONST>
1

>  <SCORE.INTER.POLAR>
0

>  <SCORE.INTER.ROT>
5

>  <SCORE.INTER.SOLV>
9.50631

>  <SCORE.INTER.VDW>
-40.3753

>  <SCORE.INTER.norm>
-1.81639

>  <SCORE.INTRA>
0.417497

>  <SCORE.INTRA.DIHEDRAL>
0.251159

>  <SCORE.INTRA.DIHEDRAL.0>
2.1627

>  <SCORE.INTRA.POLAR>
0

>  <SCORE.INTRA.POLAR.0>
0

>  <SCORE.INTRA.REPUL>
0

>  <SCORE.INTRA.REPUL.0>
0

>  <SCORE.INTRA.SOLV>
0.0404721

>  <SCORE.INTRA.SOLV.lig_0>
-5.95779

>  <SCORE.INTRA.VDW>
0.271681

>  <SCORE.INTRA.VDW.0>
3.81702

>  <SCORE.INTRA.norm>
0.0166999

>  <SCORE.RESTR>
0

>  <SCORE.RESTR.CAVITY>
0

>  <SCORE.RESTR.norm>
0

>  <SCORE.SYSTEM>
0

>  <SCORE.SYSTEM.CONST>
0

>  <SCORE.SYSTEM.DIHEDRAL>
0

>  <SCORE.SYSTEM.SOLV>
0

>  <SCORE.SYSTEM.norm>
0

>  <SCORE.heavy>
25

>  <SCORE.norm>
-1.79969

>  <RMSD>
6.493

$$$$
1q8n_lig
 OpenBabel11021811413D
libRbt.so/2013.1/901 2013/11/27
 25 27  0  0  0  0  0  0  0  0999 V2000
    1.2401   -2.1695   -0.5400 C   0  0  0  0  0  0  0  0  0  0  0  0
    1.7189   -3.4249   -1.4674 C   0  0  0  0  0  0  0  0  0  0  0  0
    0.6255    3.1734   -3.0892 N   0  0  0  0  0  0  0  0  0  0  0  0
    2.2918   -3.2782   -2.6861 C   0  0  0  0  0  0  0  0  0  0  0  0
    0.2039   -3.0475    5.2968 N   0  0  0  0  0  0  0  0  0  0  0  0
    2.7068   -4.4450   -3.4987 C   0  0  0  0  0  0  0  0  0  0  0  0
    2.5160   -5.6968   -3.0226 C   0  0  0  0  0  0  0  0  0  0  0  0
    1.9130   -5.8755   -1.7225 C   0  0  0  0  0  0  0  0  0  0  0  0
    1.5413   -4.8157   -1.0003 C   0  0  0  0  0  0  0  0  0  0  0  0
    1.0723   -0.7075   -1.2435 C   0  0  0  0  0  0  0  0  0  0  0  0
    0.8338   -0.5912   -2.5663 C   0  0  0  0  0  0  0  0  0  0  0  0
    0.6779    0.7352   -3.2254 C   0  0  0  0  0  0  0  0  0  0  0  0
    0.7714    1.8779   -2.4942 C   0  0  0  0  0  0  0  0  0  0  0  0
    1.0297    1.7664   -1.0461 C   0  0  0  0  0  0  0  0  0  0  0  0
    1.1693    0.5646   -0.4692 C   0  0  0  0  0  0  0  0  0  0  0  0
    0.9275   -2.3496    1.0782 C   0  0  0  0  0  0  0  0  0  0  0  0
    1.0749   -3.7006    1.7220 C   0  0  0  0  0  0  0  0  0  0  0  0
    0.8479   -3.9111    3.0215 C   0  0  0  0  0  0  0  0  0  0  0  0
    0.4342   -2.8124    3.9021 C   0  0  0  0  0  0  0  0  0  0  0  0
    0.2812   -1.5805    3.3733 C   0  0  0  0  0  0  0  0  0  0  0  0
    0.5350   -1.3317    1.9144 C   0  0  0  0  0  0  0  0  0  0  0  0
    0.3286    3.3468   -4.4785 C   0  0  0  0  0  0  0  0  0  0  0  0
    0.7752    4.3515   -2.2923 C   0  0  0  0  0  0  0  0  0  0  0  0
   -0.7983   -2.3017    6.0021 C   0  0  0  0  0  0  0  0  0  0  0  0
    0.9633   -4.0380    6.0260 C   0  0  0  0  0  0  0  0  0  0  0  0
  1  2  1  0  0  0  0
  1 10  1  0  0  0  0
  1 16  1  0  0  0  0
  2  4  2  0  0  0  0
  2  9  1  0  0  0  0
  4  6  1  0  0  0  0
  6  7  2  0  0  0  0
  7  8  1  0  0  0  0
  8  9  2  0  0  0  0
 10 11  2  0  0  0  0
 10 15  1  0  0  0  0
 11 12  1  0  0  0  0
 12 13  2  0  0  0  0
 13  3  1  0  0  0  0
 13 14  1  0  0  0  0
 14 15  2  0  0  0  0
 16 17  2  0  0  0  0
 16 21  1  0  0  0  0
 17 18  1  0  0  0  0
 18 19  2  0  0  0  0
 19  5  1  0  0  0  0
 19 20  1  0  0  0  0
 20 21  2  0  0  0  0
 22  3  1  0  0  0  0
 23  3  1  0  0  0  0
 24  5  1  0  0  0  0
 25  5  1  0  0  0  0
M  END
>  <CHROM.1>
16.64739799,24.55405581,-0.43653209,2.13310531,-147.16489322,1.00689854,-1.55481566
-0.05936251,-1.43623127,-1.29062900,2.34470721

>  <Name>
1q8n_lig

>  <RI>
0

>  <Rbt.Current_Directory>
/home/itssahil/PROJECTS/Mol_Feturizer/New_Systems/rnas/1q8n

>  <Rbt.Executable>
rbdock ($Id: //depot/dev/client3/rdock/2013.1/src/exe/rbdock.cxx#4 $)

>  <Rbt.Library>
libRbt.so (2013.1, Build901 2013/11/27)

>  <Rbt.Parameter_File>
/export/apps/rDock/src/rDock_2013.1_src/data/scripts/dock_solv.prm

>  <Rbt.Receptor>
prm/pocket_docking_7.prm

>  <SCORE>
-38.0399

>  <SCORE.INTER>
-39.7176

>  <SCORE.INTER.CONST>
1

>  <SCORE.INTER.POLAR>
0

>  <SCORE.INTER.ROT>
5

>  <SCORE.INTER.SOLV>
8.21748

>  <SCORE.INTER.VDW>
-36.1509

>  <SCORE.INTER.norm>
-1.5887

>  <SCORE.INTRA>
1.67767

>  <SCORE.INTRA.DIHEDRAL>
3.77571

>  <SCORE.INTRA.DIHEDRAL.0>
2.1627

>  <SCORE.INTRA.POLAR>
0

>  <SCORE.INTRA.POLAR.0>
0

>  <SCORE.INTRA.REPUL>
0

>  <SCORE.INTRA.REPUL.0>
0

>  <SCORE.INTRA.SOLV>
0.0625415

>  <SCORE.INTRA.SOLV.lig_0>
-5.95779

>  <SCORE.INTRA.VDW>
-0.24145

>  <SCORE.INTRA.VDW.0>
3.81702

>  <SCORE.INTRA.norm>
0.067107

>  <SCORE.RESTR>
0

>  <SCORE.RESTR.CAVITY>
0

>  <SCORE.RESTR.norm>
0

>  <SCORE.SYSTEM>
0

>  <SCORE.SYSTEM.CONST>
0

>  <SCORE.SYSTEM.DIHEDRAL>
0

>  <SCORE.SYSTEM.SOLV>
0

>  <SCORE.SYSTEM.norm>
0

>  <SCORE.heavy>
25

>  <SCORE.norm>
-1.5216

>  <RMSD>
6.495

$$$$
1q8n_lig
 OpenBabel11021811403D
libRbt.so/2013.1/901 2013/11/27
 25 27  0  0  0  0  0  0  0  0999 V2000
    1.7817   -2.7238   -0.8257 C   0  0  0  0  0  0  0  0  0  0  0  0
    2.1402   -3.8061   -1.9943 C   0  0  0  0  0  0  0  0  0  0  0  0
    0.6955    2.8991   -2.4458 N   0  0  0  0  0  0  0  0  0  0  0  0
    2.7089   -3.4688   -3.1765 C   0  0  0  0  0  0  0  0  0  0  0  0
    1.3529   -4.1442    4.9805 N   0  0  0  0  0  0  0  0  0  0  0  0
    3.0129   -4.4819   -4.2133 C   0  0  0  0  0  0  0  0  0  0  0  0
    2.7214   -5.7833   -3.9864 C   0  0  0  0  0  0  0  0  0  0  0  0
    2.1209   -6.1656   -2.7297 C   0  0  0  0  0  0  0  0  0  0  0  0
    1.8499   -5.2425   -1.8036 C   0  0  0  0  0  0  0  0  0  0  0  0
    1.4826   -1.1817   -1.2646 C   0  0  0  0  0  0  0  0  0  0  0  0
    1.3359   -0.2080   -0.3423 C   0  0  0  0  0  0  0  0  0  0  0  0
    1.0625    1.2052   -0.7247 C   0  0  0  0  0  0  0  0  0  0  0  0
    0.9557    1.5509   -2.0356 C   0  0  0  0  0  0  0  0  0  0  0  0
    1.1159    0.4974   -3.0555 C   0  0  0  0  0  0  0  0  0  0  0  0
    1.3599   -0.7700   -2.6938 C   0  0  0  0  0  0  0  0  0  0  0  0
    1.7184   -3.1557    0.7737 C   0  0  0  0  0  0  0  0  0  0  0  0
    0.7683   -2.4499    1.7015 C   0  0  0  0  0  0  0  0  0  0  0  0
    0.6616   -2.7561    2.9973 C   0  0  0  0  0  0  0  0  0  0  0  0
    1.4835   -3.8168    3.5916 C   0  0  0  0  0  0  0  0  0  0  0  0
    2.3571   -4.4777    2.8038 C   0  0  0  0  0  0  0  0  0  0  0  0
    2.4847   -4.1433    1.3455 C   0  0  0  0  0  0  0  0  0  0  0  0
    0.6081    3.9788   -1.5103 C   0  0  0  0  0  0  0  0  0  0  0  0
    0.5136    3.2068   -3.8305 C   0  0  0  0  0  0  0  0  0  0  0  0
    2.2086   -5.1292    5.5770 C   0  0  0  0  0  0  0  0  0  0  0  0
    0.3685   -3.4934    5.8153 C   0  0  0  0  0  0  0  0  0  0  0  0
  1  2  1  0  0  0  0
  1 10  1  0  0  0  0
  1 16  1  0  0  0  0
  2  4  2  0  0  0  0
  2  9  1  0  0  0  0
  4  6  1  0  0  0  0
  6  7  2  0  0  0  0
  7  8  1  0  0  0  0
  8  9  2  0  0  0  0
 10 11  2  0  0  0  0
 10 15  1  0  0  0  0
 11 12  1  0  0  0  0
 12 13  2  0  0  0  0
 13  3  1  0  0  0  0
 13 14  1  0  0  0  0
 14 15  2  0  0  0  0
 16 17  2  0  0  0  0
 16 21  1  0  0  0  0
 17 18  1  0  0  0  0
 18 19  2  0  0  0  0
 19  5  1  0  0  0  0
 19 20  1  0  0  0  0
 20 21  2  0  0  0  0
 22  3  1  0  0  0  0
 23  3  1  0  0  0  0
 24  5  1  0  0  0  0
 25  5  1  0  0  0  0
M  END
>  <CHROM.1>
26.83192536,-172.11653470,-148.61161749,3.68041608,-176.51711975,1.53620584
-2.11041726,-0.23025537,-1.81541952,-1.31643765,2.06567898

>  <Name>
1q8n_lig

>  <RI>
0

>  <Rbt.Current_Directory>
/home/itssahil/PROJECTS/Mol_Feturizer/New_Systems/rnas/1q8n

>  <Rbt.Executable>
rbdock ($Id: //depot/dev/client3/rdock/2013.1/src/exe/rbdock.cxx#4 $)

>  <Rbt.Library>
libRbt.so (2013.1, Build901 2013/11/27)

>  <Rbt.Parameter_File>
/export/apps/rDock/src/rDock_2013.1_src/data/scripts/dock_solv.prm

>  <Rbt.Receptor>
prm/blind_docking_80.prm

>  <SCORE>
-43.8007

>  <SCORE.INTER>
-44.9914

>  <SCORE.INTER.CONST>
1

>  <SCORE.INTER.POLAR>
0

>  <SCORE.INTER.ROT>
5

>  <SCORE.INTER.SOLV>
9.17686

>  <SCORE.INTER.VDW>
-39.9865

>  <SCORE.INTER.norm>
-1.79965

>  <SCORE.INTRA>
0.676905

>  <SCORE.INTRA.DIHEDRAL>
0.0991193

>  <SCORE.INTRA.DIHEDRAL.0>
2.1627

>  <SCORE.INTRA.POLAR>
0

>  <SCORE.INTRA.POLAR.0>
0

>  <SCORE.INTRA.REPUL>
0

>  <SCORE.INTRA.REPUL.0>
0

>  <SCORE.INTRA.SOLV>
0.0458602

>  <SCORE.INTRA.SOLV.lig_0>
-5.95779

>  <SCORE.INTRA.VDW>
0.604415

>  <SCORE.INTRA.VDW.0>
3.81702

>  <SCORE.INTRA.norm>
0.0270762

>  <SCORE.RESTR>
0.513788

>  <SCORE.RESTR.CAVITY>
0.513788

>  <SCORE.RESTR.norm>
0.0205515

>  <SCORE.SYSTEM>
0

>  <SCORE.SYSTEM.CONST>
0

>  <SCORE.SYSTEM.DIHEDRAL>
0

>  <SCORE.SYSTEM.SOLV>
0

>  <SCORE.SYSTEM.norm>
0

>  <SCORE.heavy>
25

>  <SCORE.norm>
-1.75203

>  <RMSD>
6.496

$$$$
1q8n_lig
 OpenBabel11021811403D
libRbt.so/2013.1/901 2013/11/27
 25 27  0  0  0  0  0  0  0  0999 V2000
    1.7604   -2.6696   -0.6692 C   0  0  0  0  0  0  0  0  0  0  0  0
    2.0986   -3.8136   -1.7837 C   0  0  0  0  0  0  0  0  0  0  0  0
    1.5104   -4.2696    5.0578 N   0  0  0  0  0  0  0  0  0  0  0  0
    1.7907   -5.1235   -1.6276 C   0  0  0  0  0  0  0  0  0  0  0  0
    0.7396    2.9632   -2.4420 N   0  0  0  0  0  0  0  0  0  0  0  0
    2.1206   -6.1313   -2.6617 C   0  0  0  0  0  0  0  0  0  0  0  0
    2.7451   -5.7471   -3.7986 C   0  0  0  0  0  0  0  0  0  0  0  0
    3.0765   -4.3542   -3.9883 C   0  0  0  0  0  0  0  0  0  0  0  0
    2.7754   -3.4554   -3.0477 C   0  0  0  0  0  0  0  0  0  0  0  0
    1.6946   -3.1126    0.8991 C   0  0  0  0  0  0  0  0  0  0  0  0
    2.4794   -4.0986    1.3808 C   0  0  0  0  0  0  0  0  0  0  0  0
    2.4327   -4.5163    2.8096 C   0  0  0  0  0  0  0  0  0  0  0  0
    1.5847   -3.8995    3.6754 C   0  0  0  0  0  0  0  0  0  0  0  0
    0.7219   -2.8179    3.1637 C   0  0  0  0  0  0  0  0  0  0  0  0
    0.7754   -2.4558    1.8742 C   0  0  0  0  0  0  0  0  0  0  0  0
    1.4855   -1.0910   -1.0951 C   0  0  0  0  0  0  0  0  0  0  0  0
    1.4276   -0.7082   -2.5483 C   0  0  0  0  0  0  0  0  0  0  0  0
    1.2005    0.5427   -2.9580 C   0  0  0  0  0  0  0  0  0  0  0  0
    0.9932    1.6270   -1.9909 C   0  0  0  0  0  0  0  0  0  0  0  0
    1.0413    1.3384   -0.6738 C   0  0  0  0  0  0  0  0  0  0  0  0
    1.2944   -0.0644   -0.2014 C   0  0  0  0  0  0  0  0  0  0  0  0
    2.3938   -5.2342    5.6388 C   0  0  0  0  0  0  0  0  0  0  0  0
    0.5311   -3.6706    5.9108 C   0  0  0  0  0  0  0  0  0  0  0  0
    0.5852    4.0308   -1.4961 C   0  0  0  0  0  0  0  0  0  0  0  0
    0.6388    3.2733   -3.8502 C   0  0  0  0  0  0  0  0  0  0  0  0
  1  2  1  0  0  0  0
  1 10  1  0  0  0  0
  1 16  1  0  0  0  0
  2  4  2  0  0  0  0
  2  9  1  0  0  0  0
  4  6  1  0  0  0  0
  6  7  2  0  0  0  0
  7  8  1  0  0  0  0
  8  9  2  0  0  0  0
 10 11  2  0  0  0  0
 10 15  1  0  0  0  0
 11 12  1  0  0  0  0
 12 13  2  0  0  0  0
 13  3  1  0  0  0  0
 13 14  1  0  0  0  0
 14 15  2  0  0  0  0
 16 17  2  0  0  0  0
 16 21  1  0  0  0  0
 17 18  1  0  0  0  0
 18 19  2  0  0  0  0
 19  5  1  0  0  0  0
 19 20  1  0  0  0  0
 20 21  2  0  0  0  0
 22  3  1  0  0  0  0
 23  3  1  0  0  0  0
 24  5  1  0  0  0  0
 25  5  1  0  0  0  0
M  END
>  <CHROM.1>
28.61423476,32.50817327,5.28319051,5.05761467,-177.74339511,1.57981811,-2.08824832
-0.12765042,-1.28500466,1.31934719,-1.09125595

>  <Name>
1q8n_lig

>  <RI>
0

>  <Rbt.Current_Directory>
/home/itssahil/PROJECTS/Mol_Feturizer/New_Systems/rnas/1q8n

>  <Rbt.Executable>
rbdock ($Id: //depot/dev/client3/rdock/2013.1/src/exe/rbdock.cxx#4 $)

>  <Rbt.Library>
libRbt.so (2013.1, Build901 2013/11/27)

>  <Rbt.Parameter_File>
/export/apps/rDock/src/rDock_2013.1_src/data/scripts/dock_solv.prm

>  <Rbt.Receptor>
prm/blind_docking_80.prm

>  <SCORE>
-43.7109

>  <SCORE.INTER>
-44.7822

>  <SCORE.INTER.CONST>
1

>  <SCORE.INTER.POLAR>
0

>  <SCORE.INTER.ROT>
5

>  <SCORE.INTER.SOLV>
9.26489

>  <SCORE.INTER.VDW>
-39.8764

>  <SCORE.INTER.norm>
-1.79129

>  <SCORE.INTRA>
0.478776

>  <SCORE.INTRA.DIHEDRAL>
0.115364

>  <SCORE.INTRA.DIHEDRAL.0>
2.1627

>  <SCORE.INTRA.POLAR>
0

>  <SCORE.INTRA.POLAR.0>
0

>  <SCORE.INTRA.REPUL>
0

>  <SCORE.INTRA.REPUL.0>
0

>  <SCORE.INTRA.SOLV>
0.0439233

>  <SCORE.INTRA.SOLV.lig_0>
-5.95779

>  <SCORE.INTRA.VDW>
0.399133

>  <SCORE.INTRA.VDW.0>
3.81702

>  <SCORE.INTRA.norm>
0.0191511

>  <SCORE.RESTR>
0.592463

>  <SCORE.RESTR.CAVITY>
0.592463

>  <SCORE.RESTR.norm>
0.0236985

>  <SCORE.SYSTEM>
0

>  <SCORE.SYSTEM.CONST>
0

>  <SCORE.SYSTEM.DIHEDRAL>
0

>  <SCORE.SYSTEM.SOLV>
0

>  <SCORE.SYSTEM.norm>
0

>  <SCORE.heavy>
25

>  <SCORE.norm>
-1.74844

>  <RMSD>
6.498

$$$$
1q8n_lig
 OpenBabel11021811403D
libRbt.so/2013.1/901 2013/11/27
 25 27  0  0  0  0  0  0  0  0999 V2000
    1.7269   -2.6285   -0.6059 C   0  0  0  0  0  0  0  0  0  0  0  0
    2.0341   -3.7823   -1.7194 C   0  0  0  0  0  0  0  0  0  0  0  0
    1.5927   -4.2239    5.1263 N   0  0  0  0  0  0  0  0  0  0  0  0
    1.7689   -5.0966   -1.5266 C   0  0  0  0  0  0  0  0  0  0  0  0
    0.7609    3.0076   -2.3985 N   0  0  0  0  0  0  0  0  0  0  0  0
    2.0686   -6.1130   -2.5615 C   0  0  0  0  0  0  0  0  0  0  0  0
    2.6210   -5.7325   -3.7363 C   0  0  0  0  0  0  0  0  0  0  0  0
    2.9057   -4.3352   -3.9650 C   0  0  0  0  0  0  0  0  0  0  0  0
    2.6325   -3.4285   -3.0235 C   0  0  0  0  0  0  0  0  0  0  0  0
    1.6873   -3.0613    0.9662 C   0  0  0  0  0  0  0  0  0  0  0  0
    0.8382   -2.4712    1.8328 C   0  0  0  0  0  0  0  0  0  0  0  0
    0.7883   -2.8535    3.2713 C   0  0  0  0  0  0  0  0  0  0  0  0
    1.6106   -3.8251    3.7500 C   0  0  0  0  0  0  0  0  0  0  0  0
    2.5430   -4.4809    2.8138 C   0  0  0  0  0  0  0  0  0  0  0  0
    2.5761   -4.1233    1.5224 C   0  0  0  0  0  0  0  0  0  0  0  0
    1.4573   -1.0504   -1.0365 C   0  0  0  0  0  0  0  0  0  0  0  0
    1.5911   -0.6350   -2.4756 C   0  0  0  0  0  0  0  0  0  0  0  0
    1.3784    0.6171   -2.8897 C   0  0  0  0  0  0  0  0  0  0  0  0
    0.9971    1.6702   -1.9414 C   0  0  0  0  0  0  0  0  0  0  0  0
    0.8693    1.3520   -0.6365 C   0  0  0  0  0  0  0  0  0  0  0  0
    1.1044   -0.0524   -0.1596 C   0  0  0  0  0  0  0  0  0  0  0  0
    2.4913   -5.2082    5.6481 C   0  0  0  0  0  0  0  0  0  0  0  0
    0.6570   -3.6349    6.0334 C   0  0  0  0  0  0  0  0  0  0  0  0
    0.6422    3.2843   -3.8012 C   0  0  0  0  0  0  0  0  0  0  0  0
    0.6305    4.1063   -1.4682 C   0  0  0  0  0  0  0  0  0  0  0  0
  1  2  1  0  0  0  0
  1 10  1  0  0  0  0
  1 16  1  0  0  0  0
  2  4  2  0  0  0  0
  2  9  1  0  0  0  0
  4  6  1  0  0  0  0
  6  7  2  0  0  0  0
  7  8  1  0  0  0  0
  8  9  2  0  0  0  0
 10 11  2  0  0  0  0
 10 15  1  0  0  0  0
 11 12  1  0  0  0  0
 12 13  2  0  0  0  0
 13  3  1  0  0  0  0
 13 14  1  0  0  0  0
 14 15  2  0  0  0  0
 16 17  2  0  0  0  0
 16 21  1  0  0  0  0
 17 18  1  0  0  0  0
 18 19  2  0  0  0  0
 19  5  1  0  0  0  0
 19 20  1  0  0  0  0
 20 21  2  0  0  0  0
 22  3  1  0  0  0  0
 23  3  1  0  0  0  0
 24  5  1  0  0  0  0
 25  5  1  0  0  0  0
M  END
>  <CHROM.1>
25.77294988,-145.40326753,-4.41383306,-177.48313436,11.92370036,1.58499975
-2.05792158,-0.07022059,-1.23075846,1.33482940,-1.14306662

>  <Name>
1q8n_lig

>  <RI>
0

>  <Rbt.Current_Directory>
/home/itssahil/PROJECTS/Mol_Feturizer/New_Systems/rnas/1q8n

>  <Rbt.Executable>
rbdock ($Id: //depot/dev/client3/rdock/2013.1/src/exe/rbdock.cxx#4 $)

>  <Rbt.Library>
libRbt.so (2013.1, Build901 2013/11/27)

>  <Rbt.Parameter_File>
/export/apps/rDock/src/rDock_2013.1_src/data/scripts/dock_solv.prm

>  <Rbt.Receptor>
prm/blind_docking_100.prm

>  <SCORE>
-43.0754

>  <SCORE.INTER>
-44.1218

>  <SCORE.INTER.CONST>
1

>  <SCORE.INTER.POLAR>
0

>  <SCORE.INTER.ROT>
5

>  <SCORE.INTER.SOLV>
9.0965

>  <SCORE.INTER.VDW>
-39.38

>  <SCORE.INTER.norm>
-1.76487

>  <SCORE.INTRA>
0.590053

>  <SCORE.INTRA.DIHEDRAL>
0.568995

>  <SCORE.INTRA.DIHEDRAL.0>
2.1627

>  <SCORE.INTRA.POLAR>
0

>  <SCORE.INTRA.POLAR.0>
0

>  <SCORE.INTRA.REPUL>
0

>  <SCORE.INTRA.REPUL.0>
0

>  <SCORE.INTRA.SOLV>
0.0460285

>  <SCORE.INTRA.SOLV.lig_0>
-5.95779

>  <SCORE.INTRA.VDW>
0.282541

>  <SCORE.INTRA.VDW.0>
3.81702

>  <SCORE.INTRA.norm>
0.0236021

>  <SCORE.RESTR>
0.456366

>  <SCORE.RESTR.CAVITY>
0.456366

>  <SCORE.RESTR.norm>
0.0182546

>  <SCORE.SYSTEM>
0

>  <SCORE.SYSTEM.CONST>
0

>  <SCORE.SYSTEM.DIHEDRAL>
0

>  <SCORE.SYSTEM.SOLV>
0

>  <SCORE.SYSTEM.norm>
0

>  <SCORE.heavy>
25

>  <SCORE.norm>
-1.72301

>  <RMSD>
6.500

$$$$
1q8n_lig
 OpenBabel11021811403D
libRbt.so/2013.1/901 2013/11/27
 25 27  0  0  0  0  0  0  0  0999 V2000
    1.7857   -2.6711   -0.5527 C   0  0  0  0  0  0  0  0  0  0  0  0
    2.1724   -3.7723   -1.6944 C   0  0  0  0  0  0  0  0  0  0  0  0
    0.8335    2.9559   -2.2414 N   0  0  0  0  0  0  0  0  0  0  0  0
    1.8091   -5.0756   -1.6294 C   0  0  0  0  0  0  0  0  0  0  0  0
    1.5061   -4.3065    5.2058 N   0  0  0  0  0  0  0  0  0  0  0  0
    2.1857   -6.0442   -2.6847 C   0  0  0  0  0  0  0  0  0  0  0  0
    2.9108   -5.6296   -3.7488 C   0  0  0  0  0  0  0  0  0  0  0  0
    3.3030   -4.2426   -3.8413 C   0  0  0  0  0  0  0  0  0  0  0  0
    2.9588   -3.3794   -2.8824 C   0  0  0  0  0  0  0  0  0  0  0  0
    1.5276   -1.1299   -1.0200 C   0  0  0  0  0  0  0  0  0  0  0  0
    1.7516   -0.7378   -2.2914 C   0  0  0  0  0  0  0  0  0  0  0  0
    1.5215    0.6649   -2.7357 C   0  0  0  0  0  0  0  0  0  0  0  0
    1.0697    1.5965   -1.8541 C   0  0  0  0  0  0  0  0  0  0  0  0
    0.8181    1.1820   -0.4609 C   0  0  0  0  0  0  0  0  0  0  0  0
    1.0323   -0.0843   -0.0774 C   0  0  0  0  0  0  0  0  0  0  0  0
    1.6540   -3.0834    1.0477 C   0  0  0  0  0  0  0  0  0  0  0  0
    2.4918   -4.2021    1.6028 C   0  0  0  0  0  0  0  0  0  0  0  0
    2.4405   -4.5770    2.8839 C   0  0  0  0  0  0  0  0  0  0  0  0
    1.5451   -3.9030    3.8314 C   0  0  0  0  0  0  0  0  0  0  0  0
    0.7667   -2.8961    3.3832 C   0  0  0  0  0  0  0  0  0  0  0  0
    0.8171   -2.4648    1.9457 C   0  0  0  0  0  0  0  0  0  0  0  0
    0.8799    3.3799   -3.6076 C   0  0  0  0  0  0  0  0  0  0  0  0
    0.5379    3.9445   -1.2512 C   0  0  0  0  0  0  0  0  0  0  0  0
    0.6093   -3.6661    6.1244 C   0  0  0  0  0  0  0  0  0  0  0  0
    2.3569   -5.3648    5.7014 C   0  0  0  0  0  0  0  0  0  0  0  0
  1  2  1  0  0  0  0
  1 10  1  0  0  0  0
  1 16  1  0  0  0  0
  2  4  2  0  0  0  0
  2  9  1  0  0  0  0
  4  6  1  0  0  0  0
  6  7  2  0  0  0  0
  7  8  1  0  0  0  0
  8  9  2  0  0  0  0
 10 11  2  0  0  0  0
 10 15  1  0  0  0  0
 11 12  1  0  0  0  0
 12 13  2  0  0  0  0
 13  3  1  0  0  0  0
 13 14  1  0  0  0  0
 14 15  2  0  0  0  0
 16 17  2  0  0  0  0
 16 21  1  0  0  0  0
 17 18  1  0  0  0  0
 18 19  2  0  0  0  0
 19  5  1  0  0  0  0
 19 20  1  0  0  0  0
 20 21  2  0  0  0  0
 22  3  1  0  0  0  0
 23  3  1  0  0  0  0
 24  5  1  0  0  0  0
 25  5  1  0  0  0  0
M  END
>  <CHROM.1>
-147.42975697,-6.35888561,30.30908720,8.72146358,-178.63917892,1.63585934
-2.09093650,0.01704520,-1.77903475,-1.30007304,2.12077383

>  <Name>
1q8n_lig

>  <RI>
0

>  <Rbt.Current_Directory>
/home/itssahil/PROJECTS/Mol_Feturizer/New_Systems/rnas/1q8n

>  <Rbt.Executable>
rbdock ($Id: //depot/dev/client3/rdock/2013.1/src/exe/rbdock.cxx#4 $)

>  <Rbt.Library>
libRbt.so (2013.1, Build901 2013/11/27)

>  <Rbt.Parameter_File>
/export/apps/rDock/src/rDock_2013.1_src/data/scripts/dock_solv.prm

>  <Rbt.Receptor>
prm/blind_docking_40.prm

>  <SCORE>
-44.4104

>  <SCORE.INTER>
-45.2303

>  <SCORE.INTER.CONST>
1

>  <SCORE.INTER.POLAR>
0

>  <SCORE.INTER.ROT>
5

>  <SCORE.INTER.SOLV>
9.2268

>  <SCORE.INTER.VDW>
-40.1625

>  <SCORE.INTER.norm>
-1.80921

>  <SCORE.INTRA>
0.819888

>  <SCORE.INTRA.DIHEDRAL>
0.29801

>  <SCORE.INTRA.DIHEDRAL.0>
2.1627

>  <SCORE.INTRA.POLAR>
0

>  <SCORE.INTRA.POLAR.0>
0

>  <SCORE.INTRA.REPUL>
0

>  <SCORE.INTRA.REPUL.0>
0

>  <SCORE.INTRA.SOLV>
0.0444506

>  <SCORE.INTRA.SOLV.lig_0>
-5.95779

>  <SCORE.INTRA.VDW>
0.648658

>  <SCORE.INTRA.VDW.0>
3.81702

>  <SCORE.INTRA.norm>
0.0327955

>  <SCORE.RESTR>
0

>  <SCORE.RESTR.CAVITY>
0

>  <SCORE.RESTR.norm>
0

>  <SCORE.SYSTEM>
0

>  <SCORE.SYSTEM.CONST>
0

>  <SCORE.SYSTEM.DIHEDRAL>
0

>  <SCORE.SYSTEM.SOLV>
0

>  <SCORE.SYSTEM.norm>
0

>  <SCORE.heavy>
25

>  <SCORE.norm>
-1.77642

>  <RMSD>
6.505

$$$$
1q8n_lig
 OpenBabel11021811403D
libRbt.so/2013.1/901 2013/11/27
 25 27  0  0  0  0  0  0  0  0999 V2000
    1.7796   -2.6316   -0.6296 C   0  0  0  0  0  0  0  0  0  0  0  0
    2.1278   -3.7575   -1.7595 C   0  0  0  0  0  0  0  0  0  0  0  0
    1.4885   -4.3220    5.0694 N   0  0  0  0  0  0  0  0  0  0  0  0
    2.7581   -3.4767   -2.9251 C   0  0  0  0  0  0  0  0  0  0  0  0
    0.8047    3.0335   -2.3236 N   0  0  0  0  0  0  0  0  0  0  0  0
    3.0503   -4.5278   -3.9270 C   0  0  0  0  0  0  0  0  0  0  0  0
    2.6848   -5.8073   -3.6839 C   0  0  0  0  0  0  0  0  0  0  0  0
    2.0176   -6.1297   -2.4442 C   0  0  0  0  0  0  0  0  0  0  0  0
    1.7580   -5.1728   -1.5496 C   0  0  0  0  0  0  0  0  0  0  0  0
    1.7025   -3.0994    0.9309 C   0  0  0  0  0  0  0  0  0  0  0  0
    2.4744   -4.1019    1.3995 C   0  0  0  0  0  0  0  0  0  0  0  0
    2.4172   -4.5422    2.8210 C   0  0  0  0  0  0  0  0  0  0  0  0
    1.5725   -3.9302    3.6935 C   0  0  0  0  0  0  0  0  0  0  0  0
    0.7239   -2.8309    3.1962 C   0  0  0  0  0  0  0  0  0  0  0  0
    0.7866   -2.4484    1.9131 C   0  0  0  0  0  0  0  0  0  0  0  0
    1.5059   -1.0468   -1.0326 C   0  0  0  0  0  0  0  0  0  0  0  0
    1.6676   -0.5998   -2.4594 C   0  0  0  0  0  0  0  0  0  0  0  0
    1.4532    0.6590   -2.8515 C   0  0  0  0  0  0  0  0  0  0  0  0
    1.0423    1.6886   -1.8898 C   0  0  0  0  0  0  0  0  0  0  0  0
    0.8887    1.3416   -0.5950 C   0  0  0  0  0  0  0  0  0  0  0  0
    1.1254   -0.0706   -0.1429 C   0  0  0  0  0  0  0  0  0  0  0  0
    2.2754   -5.3887    5.6093 C   0  0  0  0  0  0  0  0  0  0  0  0
    0.5977   -3.6416    5.9576 C   0  0  0  0  0  0  0  0  0  0  0  0
    0.5676    4.0737   -1.3643 C   0  0  0  0  0  0  0  0  0  0  0  0
    0.8028    3.3799   -3.7270 C   0  0  0  0  0  0  0  0  0  0  0  0
  1  2  1  0  0  0  0
  1 10  1  0  0  0  0
  1 16  1  0  0  0  0
  2  4  2  0  0  0  0
  2  9  1  0  0  0  0
  4  6  1  0  0  0  0
  6  7  2  0  0  0  0
  7  8  1  0  0  0  0
  8  9  2  0  0  0  0
 10 11  2  0  0  0  0
 10 15  1  0  0  0  0
 11 12  1  0  0  0  0
 12 13  2  0  0  0  0
 13  3  1  0  0  0  0
 13 14  1  0  0  0  0
 14 15  2  0  0  0  0
 16 17  2  0  0  0  0
 16 21  1  0  0  0  0
 17 18  1  0  0  0  0
 18 19  2  0  0  0  0
 19  5  1  0  0  0  0
 19 20  1  0  0  0  0
 20 21  2  0  0  0  0
 22  3  1  0  0  0  0
 23  3  1  0  0  0  0
 24  5  1  0  0  0  0
 25  5  1  0  0  0  0
M  END
>  <CHROM.1>
-151.15101593,31.76992993,-4.12766571,-0.67441387,-172.16388026,1.58715357
-2.08422138,-0.05904918,-1.30111396,1.32672226,-1.03968106

>  <Name>
1q8n_lig

>  <RI>
0

>  <Rbt.Current_Directory>
/home/itssahil/PROJECTS/Mol_Feturizer/New_Systems/rnas/1q8n

>  <Rbt.Executable>
rbdock ($Id: //depot/dev/client3/rdock/2013.1/src/exe/rbdock.cxx#4 $)

>  <Rbt.Library>
libRbt.so (2013.1, Build901 2013/11/27)

>  <Rbt.Parameter_File>
/export/apps/rDock/src/rDock_2013.1_src/data/scripts/dock_solv.prm

>  <Rbt.Receptor>
prm/blind_docking_40.prm

>  <SCORE>
-44.115

>  <SCORE.INTER>
-44.6214

>  <SCORE.INTER.CONST>
1

>  <SCORE.INTER.POLAR>
0

>  <SCORE.INTER.ROT>
5

>  <SCORE.INTER.SOLV>
9.3319

>  <SCORE.INTER.VDW>
-39.7916

>  <SCORE.INTER.norm>
-1.78486

>  <SCORE.INTRA>
0.5064

>  <SCORE.INTRA.DIHEDRAL>
0.236051

>  <SCORE.INTRA.DIHEDRAL.0>
2.1627

>  <SCORE.INTRA.POLAR>
0

>  <SCORE.INTRA.POLAR.0>
0

>  <SCORE.INTRA.REPUL>
0

>  <SCORE.INTRA.REPUL.0>
0

>  <SCORE.INTRA.SOLV>
0.0462914

>  <SCORE.INTRA.SOLV.lig_0>
-5.95779

>  <SCORE.INTRA.VDW>
0.365228

>  <SCORE.INTRA.VDW.0>
3.81702

>  <SCORE.INTRA.norm>
0.020256

>  <SCORE.RESTR>
0

>  <SCORE.RESTR.CAVITY>
0

>  <SCORE.RESTR.norm>
0

>  <SCORE.SYSTEM>
0

>  <SCORE.SYSTEM.CONST>
0

>  <SCORE.SYSTEM.DIHEDRAL>
0

>  <SCORE.SYSTEM.SOLV>
0

>  <SCORE.SYSTEM.norm>
0

>  <SCORE.heavy>
25

>  <SCORE.norm>
-1.7646

>  <RMSD>
6.507

$$$$
1q8n_lig
 OpenBabel11021811403D
libRbt.so/2013.1/901 2013/11/27
 25 27  0  0  0  0  0  0  0  0999 V2000
    1.7884   -2.7454   -0.7526 C   0  0  0  0  0  0  0  0  0  0  0  0
    2.1568   -3.8402   -1.9064 C   0  0  0  0  0  0  0  0  0  0  0  0
    0.7359    2.8641   -2.4400 N   0  0  0  0  0  0  0  0  0  0  0  0
    1.8780   -5.1615   -1.7995 C   0  0  0  0  0  0  0  0  0  0  0  0
    1.2901   -4.1090    5.0616 N   0  0  0  0  0  0  0  0  0  0  0  0
    2.2348   -6.1232   -2.8680 C   0  0  0  0  0  0  0  0  0  0  0  0
    2.8548   -5.6838   -3.9872 C   0  0  0  0  0  0  0  0  0  0  0  0
    3.1553   -4.2778   -4.1245 C   0  0  0  0  0  0  0  0  0  0  0  0
    2.8302   -3.4209   -3.1533 C   0  0  0  0  0  0  0  0  0  0  0  0
    1.4984   -1.2070   -1.2100 C   0  0  0  0  0  0  0  0  0  0  0  0
    1.3217   -0.2279   -0.2987 C   0  0  0  0  0  0  0  0  0  0  0  0
    1.0560    1.1820   -0.6981 C   0  0  0  0  0  0  0  0  0  0  0  0
    0.9874    1.5192   -2.0137 C   0  0  0  0  0  0  0  0  0  0  0  0
    1.1807    0.4597   -3.0218 C   0  0  0  0  0  0  0  0  0  0  0  0
    1.4172   -0.8046   -2.6449 C   0  0  0  0  0  0  0  0  0  0  0  0
    1.7063   -3.1614    0.8502 C   0  0  0  0  0  0  0  0  0  0  0  0
    0.7386   -2.4529    1.7575 C   0  0  0  0  0  0  0  0  0  0  0  0
    0.6163   -2.7465    3.0549 C   0  0  0  0  0  0  0  0  0  0  0  0
    1.4374   -3.7951    3.6712 C   0  0  0  0  0  0  0  0  0  0  0  0
    2.3264   -4.4577    2.9024 C   0  0  0  0  0  0  0  0  0  0  0  0
    2.4716   -4.1374    1.4426 C   0  0  0  0  0  0  0  0  0  0  0  0
    0.5804    3.9430   -1.5125 C   0  0  0  0  0  0  0  0  0  0  0  0
    0.6327    3.1691   -3.8334 C   0  0  0  0  0  0  0  0  0  0  0  0
    0.3126   -3.4263    5.8596 C   0  0  0  0  0  0  0  0  0  0  0  0
    2.1101   -5.1176    5.6940 C   0  0  0  0  0  0  0  0  0  0  0  0
  1  2  1  0  0  0  0
  1 10  1  0  0  0  0
  1 16  1  0  0  0  0
  2  4  2  0  0  0  0
  2  9  1  0  0  0  0
  4  6  1  0  0  0  0
  6  7  2  0  0  0  0
  7  8  1  0  0  0  0
  8  9  2  0  0  0  0
 10 11  2  0  0  0  0
 10 15  1  0  0  0  0
 11 12  1  0  0  0  0
 12 13  2  0  0  0  0
 13  3  1  0  0  0  0
 13 14  1  0  0  0  0
 14 15  2  0  0  0  0
 16 17  2  0  0  0  0
 16 21  1  0  0  0  0
 17 18  1  0  0  0  0
 18 19  2  0  0  0  0
 19  5  1  0  0  0  0
 19 20  1  0  0  0  0
 20 21  2  0  0  0  0
 22  3  1  0  0  0  0
 23  3  1  0  0  0  0
 24  5  1  0  0  0  0
 25  5  1  0  0  0  0
M  END
>  <CHROM.1>
-151.27454056,-173.25184743,-148.02794223,1.88296022,1.67195211,1.55341553
-2.09831686,-0.18765377,-1.73409900,-1.29959147,2.11353109

>  <Name>
1q8n_lig

>  <RI>
0

>  <Rbt.Current_Directory>
/home/itssahil/PROJECTS/Mol_Feturizer/New_Systems/rnas/1q8n

>  <Rbt.Executable>
rbdock ($Id: //depot/dev/client3/rdock/2013.1/src/exe/rbdock.cxx#4 $)

>  <Rbt.Library>
libRbt.so (2013.1, Build901 2013/11/27)

>  <Rbt.Parameter_File>
/export/apps/rDock/src/rDock_2013.1_src/data/scripts/dock_solv.prm

>  <Rbt.Receptor>
prm/blind_docking_20.prm

>  <SCORE>
-44.2517

>  <SCORE.INTER>
-45.4451

>  <SCORE.INTER.CONST>
1

>  <SCORE.INTER.POLAR>
0

>  <SCORE.INTER.ROT>
5

>  <SCORE.INTER.SOLV>
9.08857

>  <SCORE.INTER.VDW>
-40.2596

>  <SCORE.INTER.norm>
-1.8178

>  <SCORE.INTRA>
0.627935

>  <SCORE.INTRA.DIHEDRAL>
0.0240035

>  <SCORE.INTRA.DIHEDRAL.0>
2.1627

>  <SCORE.INTRA.POLAR>
0

>  <SCORE.INTRA.POLAR.0>
0

>  <SCORE.INTRA.REPUL>
0

>  <SCORE.INTRA.REPUL.0>
0

>  <SCORE.INTRA.SOLV>
0.0456802

>  <SCORE.INTRA.SOLV.lig_0>
-5.95779

>  <SCORE.INTRA.VDW>
0.593093

>  <SCORE.INTRA.VDW.0>
3.81702

>  <SCORE.INTRA.norm>
0.0251174

>  <SCORE.RESTR>
0.565507

>  <SCORE.RESTR.CAVITY>
0.565507

>  <SCORE.RESTR.norm>
0.0226203

>  <SCORE.SYSTEM>
0

>  <SCORE.SYSTEM.CONST>
0

>  <SCORE.SYSTEM.DIHEDRAL>
0

>  <SCORE.SYSTEM.SOLV>
0

>  <SCORE.SYSTEM.norm>
0

>  <SCORE.heavy>
25

>  <SCORE.norm>
-1.77007

>  <RMSD>
6.510

$$$$
1q8n_lig
 OpenBabel11021811403D
libRbt.so/2013.1/901 2013/11/27
 25 27  0  0  0  0  0  0  0  0999 V2000
    1.7881   -2.7332   -0.7344 C   0  0  0  0  0  0  0  0  0  0  0  0
    2.1580   -3.8305   -1.8854 C   0  0  0  0  0  0  0  0  0  0  0  0
    0.7489    2.8751   -2.4342 N   0  0  0  0  0  0  0  0  0  0  0  0
    1.8652   -5.1490   -1.7827 C   0  0  0  0  0  0  0  0  0  0  0  0
    1.2710   -4.0872    5.0804 N   0  0  0  0  0  0  0  0  0  0  0  0
    2.2238   -6.1132   -2.8483 C   0  0  0  0  0  0  0  0  0  0  0  0
    2.8598   -5.6789   -3.9605 C   0  0  0  0  0  0  0  0  0  0  0  0
    3.1754   -4.2758   -4.0933 C   0  0  0  0  0  0  0  0  0  0  0  0
    2.8485   -3.4167   -3.1247 C   0  0  0  0  0  0  0  0  0  0  0  0
    1.5017   -1.1951   -1.1952 C   0  0  0  0  0  0  0  0  0  0  0  0
    1.3331   -0.2125   -0.2861 C   0  0  0  0  0  0  0  0  0  0  0  0
    1.0709    1.1971   -0.6886 C   0  0  0  0  0  0  0  0  0  0  0  0
    0.9973    1.5306   -2.0049 C   0  0  0  0  0  0  0  0  0  0  0  0
    1.1818    0.4673   -3.0106 C   0  0  0  0  0  0  0  0  0  0  0  0
    1.4152   -0.7968   -2.6309 C   0  0  0  0  0  0  0  0  0  0  0  0
    1.7009   -3.1463    0.8688 C   0  0  0  0  0  0  0  0  0  0  0  0
    0.7274   -2.4391    1.7710 C   0  0  0  0  0  0  0  0  0  0  0  0
    0.6008   -2.7306    3.0684 C   0  0  0  0  0  0  0  0  0  0  0  0
    1.4229   -3.7755    3.6900 C   0  0  0  0  0  0  0  0  0  0  0  0
    2.3170   -4.4368    2.9260 C   0  0  0  0  0  0  0  0  0  0  0  0
    2.4670   -4.1188    1.4661 C   0  0  0  0  0  0  0  0  0  0  0  0
    0.6456    3.2285   -3.8173 C   0  0  0  0  0  0  0  0  0  0  0  0
    0.5934    3.9203   -1.4706 C   0  0  0  0  0  0  0  0  0  0  0  0
    0.3066   -3.3873    5.8794 C   0  0  0  0  0  0  0  0  0  0  0  0
    2.0732   -5.1106    5.7118 C   0  0  0  0  0  0  0  0  0  0  0  0
  1  2  1  0  0  0  0
  1 10  1  0  0  0  0
  1 16  1  0  0  0  0
  2  4  2  0  0  0  0
  2  9  1  0  0  0  0
  4  6  1  0  0  0  0
  6  7  2  0  0  0  0
  7  8  1  0  0  0  0
  8  9  2  0  0  0  0
 10 11  2  0  0  0  0
 10 15  1  0  0  0  0
 11 12  1  0  0  0  0
 12 13  2  0  0  0  0
 13  3  1  0  0  0  0
 13 14  1  0  0  0  0
 14 15  2  0  0  0  0
 16 17  2  0  0  0  0
 16 21  1  0  0  0  0
 17 18  1  0  0  0  0
 18 19  2  0  0  0  0
 19  5  1  0  0  0  0
 19 20  1  0  0  0  0
 20 21  2  0  0  0  0
 22  3  1  0  0  0  0
 23  3  1  0  0  0  0
 24  5  1  0  0  0  0
 25  5  1  0  0  0  0
M  END
>  <CHROM.1>
-150.61204905,-172.79575091,-147.74866593,-178.81687334,0.42382925,1.55234317
-2.08435603,-0.16892035,-1.72263152,-1.29963877,2.12406256

>  <Name>
1q8n_lig

>  <RI>
0

>  <Rbt.Current_Directory>
/home/itssahil/PROJECTS/Mol_Feturizer/New_Systems/rnas/1q8n

>  <Rbt.Executable>
rbdock ($Id: //depot/dev/client3/rdock/2013.1/src/exe/rbdock.cxx#4 $)

>  <Rbt.Library>
libRbt.so (2013.1, Build901 2013/11/27)

>  <Rbt.Parameter_File>
/export/apps/rDock/src/rDock_2013.1_src/data/scripts/dock_solv.prm

>  <Rbt.Receptor>
prm/blind_docking_20.prm

>  <SCORE>
-44.4332

>  <SCORE.INTER>
-45.5987

>  <SCORE.INTER.CONST>
1

>  <SCORE.INTER.POLAR>
0

>  <SCORE.INTER.ROT>
5

>  <SCORE.INTER.SOLV>
9.07917

>  <SCORE.INTER.VDW>
-40.3589

>  <SCORE.INTER.norm>
-1.82395

>  <SCORE.INTRA>
0.595644

>  <SCORE.INTRA.DIHEDRAL>
0.00552901

>  <SCORE.INTRA.DIHEDRAL.0>
2.1627

>  <SCORE.INTRA.POLAR>
0

>  <SCORE.INTRA.POLAR.0>
0

>  <SCORE.INTRA.REPUL>
0

>  <SCORE.INTRA.REPUL.0>
0

>  <SCORE.INTRA.SOLV>
0.0444929

>  <SCORE.INTRA.SOLV.lig_0>
-5.95779

>  <SCORE.INTRA.VDW>
0.570633

>  <SCORE.INTRA.VDW.0>
3.81702

>  <SCORE.INTRA.norm>
0.0238258

>  <SCORE.RESTR>
0.569905

>  <SCORE.RESTR.CAVITY>
0.569905

>  <SCORE.RESTR.norm>
0.0227962

>  <SCORE.SYSTEM>
0

>  <SCORE.SYSTEM.CONST>
0

>  <SCORE.SYSTEM.DIHEDRAL>
0

>  <SCORE.SYSTEM.SOLV>
0

>  <SCORE.SYSTEM.norm>
0

>  <SCORE.heavy>
25

>  <SCORE.norm>
-1.77733

>  <RMSD>
6.511

$$$$
1q8n_lig
 OpenBabel11021811403D
libRbt.so/2013.1/901 2013/11/27
 25 27  0  0  0  0  0  0  0  0999 V2000
    1.7787   -2.8299   -0.6904 C   0  0  0  0  0  0  0  0  0  0  0  0
    2.0461   -3.9213   -1.8748 C   0  0  0  0  0  0  0  0  0  0  0  0
    0.7974    2.8370   -2.2215 N   0  0  0  0  0  0  0  0  0  0  0  0
    1.8470   -5.2526   -1.7234 C   0  0  0  0  0  0  0  0  0  0  0  0
    1.5656   -4.2486    5.1281 N   0  0  0  0  0  0  0  0  0  0  0  0
    2.1075   -6.2105   -2.8227 C   0  0  0  0  0  0  0  0  0  0  0  0
    2.5553   -5.7575   -4.0161 C   0  0  0  0  0  0  0  0  0  0  0  0
    2.7679   -4.3410   -4.2011 C   0  0  0  0  0  0  0  0  0  0  0  0
    2.5311   -3.4875   -3.2017 C   0  0  0  0  0  0  0  0  0  0  0  0
    1.5131   -1.2775   -1.1143 C   0  0  0  0  0  0  0  0  0  0  0  0
    1.8495   -0.8192   -2.3378 C   0  0  0  0  0  0  0  0  0  0  0  0
    1.6145    0.5947   -2.7420 C   0  0  0  0  0  0  0  0  0  0  0  0
    1.0427    1.4692   -1.8715 C   0  0  0  0  0  0  0  0  0  0  0  0
    0.6674    0.9820   -0.5307 C   0  0  0  0  0  0  0  0  0  0  0  0
    0.8878   -0.2935   -0.1827 C   0  0  0  0  0  0  0  0  0  0  0  0
    1.7736   -3.2630    0.9099 C   0  0  0  0  0  0  0  0  0  0  0  0
    0.8858   -2.5321    1.8791 C   0  0  0  0  0  0  0  0  0  0  0  0
    0.8276   -2.8376    3.1782 C   0  0  0  0  0  0  0  0  0  0  0  0
    1.6442   -3.9225    3.7349 C   0  0  0  0  0  0  0  0  0  0  0  0
    2.4631   -4.6065    2.9091 C   0  0  0  0  0  0  0  0  0  0  0  0
    2.5359   -4.2730    1.4467 C   0  0  0  0  0  0  0  0  0  0  0  0
    0.5084    3.8369   -1.2390 C   0  0  0  0  0  0  0  0  0  0  0  0
    0.8371    3.2469   -3.5911 C   0  0  0  0  0  0  0  0  0  0  0  0
    0.5479   -3.6641    5.9534 C   0  0  0  0  0  0  0  0  0  0  0  0
    2.4968   -5.1720    5.7362 C   0  0  0  0  0  0  0  0  0  0  0  0
  1  2  1  0  0  0  0
  1 10  1  0  0  0  0
  1 16  1  0  0  0  0
  2  4  2  0  0  0  0
  2  9  1  0  0  0  0
  4  6  1  0  0  0  0
  6  7  2  0  0  0  0
  7  8  1  0  0  0  0
  8  9  2  0  0  0  0
 10 11  2  0  0  0  0
 10 15  1  0  0  0  0
 11 12  1  0  0  0  0
 12 13  2  0  0  0  0
 13  3  1  0  0  0  0
 13 14  1  0  0  0  0
 14 15  2  0  0  0  0
 16 17  2  0  0  0  0
 16 21  1  0  0  0  0
 17 18  1  0  0  0  0
 18 19  2  0  0  0  0
 19  5  1  0  0  0  0
 19 20  1  0  0  0  0
 20 21  2  0  0  0  0
 22  3  1  0  0  0  0
 23  3  1  0  0  0  0
 24  5  1  0  0  0  0
 25  5  1  0  0  0  0
M  END
>  <CHROM.1>
-157.60293023,-17.58627790,-148.26334783,-164.38476817,9.55388149,1.58880127
-2.17762224,-0.08610802,-1.85623995,-1.33888415,2.01484405

>  <Name>
1q8n_lig

>  <RI>
0

>  <Rbt.Current_Directory>
/home/itssahil/PROJECTS/Mol_Feturizer/New_Systems/rnas/1q8n

>  <Rbt.Executable>
rbdock ($Id: //depot/dev/client3/rdock/2013.1/src/exe/rbdock.cxx#4 $)

>  <Rbt.Library>
libRbt.so (2013.1, Build901 2013/11/27)

>  <Rbt.Parameter_File>
/export/apps/rDock/src/rDock_2013.1_src/data/scripts/dock_solv.prm

>  <Rbt.Receptor>
prm/blind_docking_20.prm

>  <SCORE>
-43.3356

>  <SCORE.INTER>
-45.3093

>  <SCORE.INTER.CONST>
1

>  <SCORE.INTER.POLAR>
0

>  <SCORE.INTER.ROT>
5

>  <SCORE.INTER.SOLV>
8.98828

>  <SCORE.INTER.VDW>
-40.1356

>  <SCORE.INTER.norm>
-1.81237

>  <SCORE.INTRA>
1.37131

>  <SCORE.INTRA.DIHEDRAL>
1.27962

>  <SCORE.INTRA.DIHEDRAL.0>
2.1627

>  <SCORE.INTRA.POLAR>
0

>  <SCORE.INTRA.POLAR.0>
0

>  <SCORE.INTRA.REPUL>
0

>  <SCORE.INTRA.REPUL.0>
0

>  <SCORE.INTRA.SOLV>
0.0516585

>  <SCORE.INTRA.SOLV.lig_0>
-5.95779

>  <SCORE.INTRA.VDW>
0.705672

>  <SCORE.INTRA.VDW.0>
3.81702

>  <SCORE.INTRA.norm>
0.0548525

>  <SCORE.RESTR>
0.602368

>  <SCORE.RESTR.CAVITY>
0.602368

>  <SCORE.RESTR.norm>
0.0240947

>  <SCORE.SYSTEM>
0

>  <SCORE.SYSTEM.CONST>
0

>  <SCORE.SYSTEM.DIHEDRAL>
0

>  <SCORE.SYSTEM.SOLV>
0

>  <SCORE.SYSTEM.norm>
0

>  <SCORE.heavy>
25

>  <SCORE.norm>
-1.73342

>  <RMSD>
6.513

$$$$
1q8n_lig
 OpenBabel11021811403D
libRbt.so/2013.1/901 2013/11/27
 25 27  0  0  0  0  0  0  0  0999 V2000
    1.7622   -2.7083   -0.9214 C   0  0  0  0  0  0  0  0  0  0  0  0
    2.2512   -3.8168   -2.0157 C   0  0  0  0  0  0  0  0  0  0  0  0
    0.6211    2.8107   -2.8346 N   0  0  0  0  0  0  0  0  0  0  0  0
    1.9056   -5.1253   -1.9598 C   0  0  0  0  0  0  0  0  0  0  0  0
    1.3048   -4.2264    4.8578 N   0  0  0  0  0  0  0  0  0  0  0  0
    2.3760   -6.1004   -2.9707 C   0  0  0  0  0  0  0  0  0  0  0  0
    3.1716   -5.6866   -3.9835 C   0  0  0  0  0  0  0  0  0  0  0  0
    3.5465   -4.2943   -4.0657 C   0  0  0  0  0  0  0  0  0  0  0  0
    3.1175   -3.4252   -3.1472 C   0  0  0  0  0  0  0  0  0  0  0  0
    1.4490   -1.1942   -1.4406 C   0  0  0  0  0  0  0  0  0  0  0  0
    1.5074   -0.1405   -0.6000 C   0  0  0  0  0  0  0  0  0  0  0  0
    1.2246    1.2486   -1.0565 C   0  0  0  0  0  0  0  0  0  0  0  0
    0.8984    1.4892   -2.3545 C   0  0  0  0  0  0  0  0  0  0  0  0
    0.8327    0.3473   -3.2860 C   0  0  0  0  0  0  0  0  0  0  0  0
    1.0885   -0.8969   -2.8579 C   0  0  0  0  0  0  0  0  0  0  0  0
    1.5822   -3.0865    0.6827 C   0  0  0  0  0  0  0  0  0  0  0  0
    2.3764   -4.2164    1.2779 C   0  0  0  0  0  0  0  0  0  0  0  0
    2.2852   -4.5655    2.5641 C   0  0  0  0  0  0  0  0  0  0  0  0
    1.3866   -3.8501    3.4776 C   0  0  0  0  0  0  0  0  0  0  0  0
    0.6463   -2.8316    2.9927 C   0  0  0  0  0  0  0  0  0  0  0  0
    0.7417   -2.4291    1.5492 C   0  0  0  0  0  0  0  0  0  0  0  0
    0.6802    3.9604   -1.9842 C   0  0  0  0  0  0  0  0  0  0  0  0
    0.2718    3.0188   -4.2057 C   0  0  0  0  0  0  0  0  0  0  0  0
    2.1545   -5.2579    5.3798 C   0  0  0  0  0  0  0  0  0  0  0  0
    0.3769   -3.5798    5.7580 C   0  0  0  0  0  0  0  0  0  0  0  0
  1  2  1  0  0  0  0
  1 10  1  0  0  0  0
  1 16  1  0  0  0  0
  2  4  2  0  0  0  0
  2  9  1  0  0  0  0
  4  6  1  0  0  0  0
  6  7  2  0  0  0  0
  7  8  1  0  0  0  0
  8  9  2  0  0  0  0
 10 11  2  0  0  0  0
 10 15  1  0  0  0  0
 11 12  1  0  0  0  0
 12 13  2  0  0  0  0
 13  3  1  0  0  0  0
 13 14  1  0  0  0  0
 14 15  2  0  0  0  0
 16 17  2  0  0  0  0
 16 21  1  0  0  0  0
 17 18  1  0  0  0  0
 18 19  2  0  0  0  0
 19  5  1  0  0  0  0
 19 20  1  0  0  0  0
 20 21  2  0  0  0  0
 22  3  1  0  0  0  0
 23  3  1  0  0  0  0
 24  5  1  0  0  0  0
 25  5  1  0  0  0  0
M  END
>  <CHROM.1>
-144.69856098,-156.24072255,25.77495774,0.52620143,3.46617523,1.56233897
-2.13292356,-0.39775370,-1.76900111,-1.25751704,2.09912699

>  <Name>
1q8n_lig

>  <RI>
0

>  <Rbt.Current_Directory>
/home/itssahil/PROJECTS/Mol_Feturizer/New_Systems/rnas/1q8n

>  <Rbt.Executable>
rbdock ($Id: //depot/dev/client3/rdock/2013.1/src/exe/rbdock.cxx#4 $)

>  <Rbt.Library>
libRbt.so (2013.1, Build901 2013/11/27)

>  <Rbt.Parameter_File>
/export/apps/rDock/src/rDock_2013.1_src/data/scripts/dock_solv.prm

>  <Rbt.Receptor>
prm/blind_docking_60.prm

>  <SCORE>
-43.4634

>  <SCORE.INTER>
-43.8207

>  <SCORE.INTER.CONST>
1

>  <SCORE.INTER.POLAR>
0

>  <SCORE.INTER.ROT>
5

>  <SCORE.INTER.SOLV>
9.72629

>  <SCORE.INTER.VDW>
-39.3892

>  <SCORE.INTER.norm>
-1.75283

>  <SCORE.INTRA>
0.185604

>  <SCORE.INTRA.DIHEDRAL>
0.0445776

>  <SCORE.INTRA.DIHEDRAL.0>
2.1627

>  <SCORE.INTRA.POLAR>
0

>  <SCORE.INTRA.POLAR.0>
0

>  <SCORE.INTRA.REPUL>
0

>  <SCORE.INTRA.REPUL.0>
0

>  <SCORE.INTRA.SOLV>
0.0315997

>  <SCORE.INTRA.SOLV.lig_0>
-5.95779

>  <SCORE.INTRA.VDW>
0.147515

>  <SCORE.INTRA.VDW.0>
3.81702

>  <SCORE.INTRA.norm>
0.00742416

>  <SCORE.RESTR>
0.171702

>  <SCORE.RESTR.CAVITY>
0.171702

>  <SCORE.RESTR.norm>
0.0068681

>  <SCORE.SYSTEM>
0

>  <SCORE.SYSTEM.CONST>
0

>  <SCORE.SYSTEM.DIHEDRAL>
0

>  <SCORE.SYSTEM.SOLV>
0

>  <SCORE.SYSTEM.norm>
0

>  <SCORE.heavy>
25

>  <SCORE.norm>
-1.73854

>  <RMSD>
6.513

$$$$
1q8n_lig
 OpenBabel11021811403D
libRbt.so/2013.1/901 2013/11/27
 25 27  0  0  0  0  0  0  0  0999 V2000
    1.8657   -2.7797   -0.9909 C   0  0  0  0  0  0  0  0  0  0  0  0
    2.2988   -3.8610   -2.1349 C   0  0  0  0  0  0  0  0  0  0  0  0
    0.6516    2.7997   -2.6695 N   0  0  0  0  0  0  0  0  0  0  0  0
    3.0358   -3.5407   -3.2253 C   0  0  0  0  0  0  0  0  0  0  0  0
    1.3180   -4.1139    4.8257 N   0  0  0  0  0  0  0  0  0  0  0  0
    3.4026   -4.5518   -4.2437 C   0  0  0  0  0  0  0  0  0  0  0  0
    2.9986   -5.8340   -4.0927 C   0  0  0  0  0  0  0  0  0  0  0  0
    2.2176   -6.1984   -2.9338 C   0  0  0  0  0  0  0  0  0  0  0  0
    1.8917   -5.2773   -2.0236 C   0  0  0  0  0  0  0  0  0  0  0  0
    1.5339   -1.2521   -1.4561 C   0  0  0  0  0  0  0  0  0  0  0  0
    1.2828   -0.9532   -2.7476 C   0  0  0  0  0  0  0  0  0  0  0  0
    0.9780    0.4357   -3.1903 C   0  0  0  0  0  0  0  0  0  0  0  0
    0.9429    1.4502   -2.2854 C   0  0  0  0  0  0  0  0  0  0  0  0
    1.2132    1.1383   -0.8691 C   0  0  0  0  0  0  0  0  0  0  0  0
    1.4877   -0.1171   -0.4881 C   0  0  0  0  0  0  0  0  0  0  0  0
    1.7600   -3.1984    0.6098 C   0  0  0  0  0  0  0  0  0  0  0  0
    1.0046   -2.3159    1.5649 C   0  0  0  0  0  0  0  0  0  0  0  0
    0.8738   -2.6008    2.8634 C   0  0  0  0  0  0  0  0  0  0  0  0
    1.4738   -3.8127    3.4335 C   0  0  0  0  0  0  0  0  0  0  0  0
    2.1679   -4.6362    2.6206 C   0  0  0  0  0  0  0  0  0  0  0  0
    2.3202   -4.3271    1.1591 C   0  0  0  0  0  0  0  0  0  0  0  0
    0.4167    3.1725   -4.0313 C   0  0  0  0  0  0  0  0  0  0  0  0
    0.5858    3.8305   -1.6804 C   0  0  0  0  0  0  0  0  0  0  0  0
    0.3243   -3.4359    5.6075 C   0  0  0  0  0  0  0  0  0  0  0  0
    2.1454   -5.1047    5.4762 C   0  0  0  0  0  0  0  0  0  0  0  0
  1  2  1  0  0  0  0
  1 10  1  0  0  0  0
  1 16  1  0  0  0  0
  2  4  2  0  0  0  0
  2  9  1  0  0  0  0
  4  6  1  0  0  0  0
  6  7  2  0  0  0  0
  7  8  1  0  0  0  0
  8  9  2  0  0  0  0
 10 11  2  0  0  0  0
 10 15  1  0  0  0  0
 11 12  1  0  0  0  0
 12 13  2  0  0  0  0
 13  3  1  0  0  0  0
 13 14  1  0  0  0  0
 14 15  2  0  0  0  0
 16 17  2  0  0  0  0
 16 21  1  0  0  0  0
 17 18  1  0  0  0  0
 18 19  2  0  0  0  0
 19  5  1  0  0  0  0
 19 20  1  0  0  0  0
 20 21  2  0  0  0  0
 22  3  1  0  0  0  0
 23  3  1  0  0  0  0
 24  5  1  0  0  0  0
 25  5  1  0  0  0  0
M  END
>  <CHROM.1>
34.89470775,16.81532259,-162.92508892,-1.79247946,15.25160389,1.58597857
-2.15078425,-0.38466445,-1.79146726,-1.28744901,2.08597068

>  <Name>
1q8n_lig

>  <RI>
0

>  <Rbt.Current_Directory>
/home/itssahil/PROJECTS/Mol_Feturizer/New_Systems/rnas/1q8n

>  <Rbt.Executable>
rbdock ($Id: //depot/dev/client3/rdock/2013.1/src/exe/rbdock.cxx#4 $)

>  <Rbt.Library>
libRbt.so (2013.1, Build901 2013/11/27)

>  <Rbt.Parameter_File>
/export/apps/rDock/src/rDock_2013.1_src/data/scripts/dock_solv.prm

>  <Rbt.Receptor>
prm/blind_docking_80.prm

>  <SCORE>
-44.4604

>  <SCORE.INTER>
-45.5282

>  <SCORE.INTER.CONST>
1

>  <SCORE.INTER.POLAR>
0

>  <SCORE.INTER.ROT>
5

>  <SCORE.INTER.SOLV>
9.41387

>  <SCORE.INTER.VDW>
-40.4234

>  <SCORE.INTER.norm>
-1.82113

>  <SCORE.INTRA>
0.609488

>  <SCORE.INTRA.DIHEDRAL>
0.895017

>  <SCORE.INTRA.DIHEDRAL.0>
2.1627

>  <SCORE.INTRA.POLAR>
0

>  <SCORE.INTRA.POLAR.0>
0

>  <SCORE.INTRA.REPUL>
0

>  <SCORE.INTRA.REPUL.0>
0

>  <SCORE.INTRA.SOLV>
0.0448361

>  <SCORE.INTRA.SOLV.lig_0>
-5.95779

>  <SCORE.INTRA.VDW>
0.139562

>  <SCORE.INTRA.VDW.0>
3.81702

>  <SCORE.INTRA.norm>
0.0243795

>  <SCORE.RESTR>
0.458296

>  <SCORE.RESTR.CAVITY>
0.458296

>  <SCORE.RESTR.norm>
0.0183318

>  <SCORE.SYSTEM>
0

>  <SCORE.SYSTEM.CONST>
0

>  <SCORE.SYSTEM.DIHEDRAL>
0

>  <SCORE.SYSTEM.SOLV>
0

>  <SCORE.SYSTEM.norm>
0

>  <SCORE.heavy>
25

>  <SCORE.norm>
-1.77842

>  <RMSD>
6.516

$$$$
1q8n_lig
 OpenBabel11021811413D
libRbt.so/2013.1/901 2013/11/27
 25 27  0  0  0  0  0  0  0  0999 V2000
    1.7892   -2.6859   -0.5661 C   0  0  0  0  0  0  0  0  0  0  0  0
    2.1146   -3.8233   -1.6912 C   0  0  0  0  0  0  0  0  0  0  0  0
    1.5734   -4.3259    5.1510 N   0  0  0  0  0  0  0  0  0  0  0  0
    1.7579   -5.1239   -1.5643 C   0  0  0  0  0  0  0  0  0  0  0  0
    0.8153    2.9691   -2.2940 N   0  0  0  0  0  0  0  0  0  0  0  0
    2.0778   -6.1260   -2.6069 C   0  0  0  0  0  0  0  0  0  0  0  0
    2.7426   -5.7459   -3.7221 C   0  0  0  0  0  0  0  0  0  0  0  0
    3.1264   -4.3627   -3.8807 C   0  0  0  0  0  0  0  0  0  0  0  0
    2.8338   -3.4689   -2.9326 C   0  0  0  0  0  0  0  0  0  0  0  0
    1.7325   -3.1400    0.9994 C   0  0  0  0  0  0  0  0  0  0  0  0
    2.4778   -4.1673    1.4571 C   0  0  0  0  0  0  0  0  0  0  0  0
    2.4388   -4.5957    2.8828 C   0  0  0  0  0  0  0  0  0  0  0  0
    1.6386   -3.9468    3.7706 C   0  0  0  0  0  0  0  0  0  0  0  0
    0.8195   -2.8201    3.2853 C   0  0  0  0  0  0  0  0  0  0  0  0
    0.8653   -2.4488    1.9982 C   0  0  0  0  0  0  0  0  0  0  0  0
    1.5181   -1.1032   -0.9786 C   0  0  0  0  0  0  0  0  0  0  0  0
    1.6368   -0.6743   -2.4151 C   0  0  0  0  0  0  0  0  0  0  0  0
    1.4222    0.5820   -2.8149 C   0  0  0  0  0  0  0  0  0  0  0  0
    1.0537    1.6269   -1.8524 C   0  0  0  0  0  0  0  0  0  0  0  0
    0.9397    1.2964   -0.5492 C   0  0  0  0  0  0  0  0  0  0  0  0
    1.1771   -0.1129   -0.0884 C   0  0  0  0  0  0  0  0  0  0  0  0
    0.6564   -3.7193    6.0673 C   0  0  0  0  0  0  0  0  0  0  0  0
    2.4411   -5.3429    5.6590 C   0  0  0  0  0  0  0  0  0  0  0  0
    0.5769    4.0146   -1.3409 C   0  0  0  0  0  0  0  0  0  0  0  0
    0.8139    3.3074   -3.6994 C   0  0  0  0  0  0  0  0  0  0  0  0
  1  2  1  0  0  0  0
  1 10  1  0  0  0  0
  1 16  1  0  0  0  0
  2  4  2  0  0  0  0
  2  9  1  0  0  0  0
  4  6  1  0  0  0  0
  6  7  2  0  0  0  0
  7  8  1  0  0  0  0
  8  9  2  0  0  0  0
 10 11  2  0  0  0  0
 10 15  1  0  0  0  0
 11 12  1  0  0  0  0
 12 13  2  0  0  0  0
 13  3  1  0  0  0  0
 13 14  1  0  0  0  0
 14 15  2  0  0  0  0
 16 17  2  0  0  0  0
 16 21  1  0  0  0  0
 17 18  1  0  0  0  0
 18 19  2  0  0  0  0
 19  5  1  0  0  0  0
 19 20  1  0  0  0  0
 20 21  2  0  0  0  0
 22  3  1  0  0  0  0
 23  3  1  0  0  0  0
 24  5  1  0  0  0  0
 25  5  1  0  0  0  0
M  END
>  <CHROM.1>
31.15978582,29.87673479,-3.02084955,-174.88739769,-174.22276920,1.62668165
-2.10785110,-0.01942211,-1.28978169,1.32509957,-1.07715906

>  <Name>
1q8n_lig

>  <RI>
0

>  <Rbt.Current_Directory>
/home/itssahil/PROJECTS/Mol_Feturizer/New_Systems/rnas/1q8n

>  <Rbt.Executable>
rbdock ($Id: //depot/dev/client3/rdock/2013.1/src/exe/rbdock.cxx#4 $)

>  <Rbt.Library>
libRbt.so (2013.1, Build901 2013/11/27)

>  <Rbt.Parameter_File>
/export/apps/rDock/src/rDock_2013.1_src/data/scripts/dock_solv.prm

>  <Rbt.Receptor>
prm/pocket_docking_8.prm

>  <SCORE>
-44.2221

>  <SCORE.INTER>
-44.7867

>  <SCORE.INTER.CONST>
1

>  <SCORE.INTER.POLAR>
0

>  <SCORE.INTER.ROT>
5

>  <SCORE.INTER.SOLV>
9.29792

>  <SCORE.INTER.VDW>
-39.8904

>  <SCORE.INTER.norm>
-1.79147

>  <SCORE.INTRA>
0.564553

>  <SCORE.INTRA.DIHEDRAL>
0.227785

>  <SCORE.INTRA.DIHEDRAL.0>
2.1627

>  <SCORE.INTRA.POLAR>
0

>  <SCORE.INTRA.POLAR.0>
0

>  <SCORE.INTRA.REPUL>
0

>  <SCORE.INTRA.REPUL.0>
0

>  <SCORE.INTRA.SOLV>
0.0463934

>  <SCORE.INTRA.SOLV.lig_0>
-5.95779

>  <SCORE.INTRA.VDW>
0.427463

>  <SCORE.INTRA.VDW.0>
3.81702

>  <SCORE.INTRA.norm>
0.0225821

>  <SCORE.RESTR>
0

>  <SCORE.RESTR.CAVITY>
0

>  <SCORE.RESTR.norm>
0

>  <SCORE.SYSTEM>
0

>  <SCORE.SYSTEM.CONST>
0

>  <SCORE.SYSTEM.DIHEDRAL>
0

>  <SCORE.SYSTEM.SOLV>
0

>  <SCORE.SYSTEM.norm>
0

>  <SCORE.heavy>
25

>  <SCORE.norm>
-1.76889

>  <RMSD>
6.517

$$$$
1q8n_lig
 OpenBabel11021811413D
libRbt.so/2013.1/901 2013/11/27
 25 27  0  0  0  0  0  0  0  0999 V2000
    1.7649   -2.6440   -0.5294 C   0  0  0  0  0  0  0  0  0  0  0  0
    2.1105   -3.7870   -1.6428 C   0  0  0  0  0  0  0  0  0  0  0  0
    1.3853   -4.2672    5.1840 N   0  0  0  0  0  0  0  0  0  0  0  0
    1.7513   -5.0869   -1.5158 C   0  0  0  0  0  0  0  0  0  0  0  0
    0.8639    3.0111   -2.2960 N   0  0  0  0  0  0  0  0  0  0  0  0
    2.0899   -6.0943   -2.5475 C   0  0  0  0  0  0  0  0  0  0  0  0
    2.7749   -5.7198   -3.6523 C   0  0  0  0  0  0  0  0  0  0  0  0
    3.1618   -4.3374   -3.8108 C   0  0  0  0  0  0  0  0  0  0  0  0
    2.8522   -3.4389   -2.8727 C   0  0  0  0  0  0  0  0  0  0  0  0
    1.6637   -3.0933    1.0352 C   0  0  0  0  0  0  0  0  0  0  0  0
    2.4499   -4.0693    1.5348 C   0  0  0  0  0  0  0  0  0  0  0  0
    2.3712   -4.4925    2.9605 C   0  0  0  0  0  0  0  0  0  0  0  0
    1.4911   -3.8913    3.8051 C   0  0  0  0  0  0  0  0  0  0  0  0
    0.6263   -2.8209    3.2737 C   0  0  0  0  0  0  0  0  0  0  0  0
    0.7089   -2.4536    1.9873 C   0  0  0  0  0  0  0  0  0  0  0  0
    1.5175   -1.0603   -0.9529 C   0  0  0  0  0  0  0  0  0  0  0  0
    1.5821   -0.6546   -2.3995 C   0  0  0  0  0  0  0  0  0  0  0  0
    1.3829    0.6016   -2.8079 C   0  0  0  0  0  0  0  0  0  0  0  0
    1.0864    1.6691   -1.8456 C   0  0  0  0  0  0  0  0  0  0  0  0
    1.0230    1.3598   -0.5338 C   0  0  0  0  0  0  0  0  0  0  0  0
    1.2436   -0.0490   -0.0631 C   0  0  0  0  0  0  0  0  0  0  0  0
    0.4888   -3.6127    6.0875 C   0  0  0  0  0  0  0  0  0  0  0  0
    2.1895   -5.3298    5.7032 C   0  0  0  0  0  0  0  0  0  0  0  0
    0.9037    3.3222   -3.6960 C   0  0  0  0  0  0  0  0  0  0  0  0
    0.5892    4.0800   -1.3625 C   0  0  0  0  0  0  0  0  0  0  0  0
  1  2  1  0  0  0  0
  1 10  1  0  0  0  0
  1 16  1  0  0  0  0
  2  4  2  0  0  0  0
  2  9  1  0  0  0  0
  4  6  1  0  0  0  0
  6  7  2  0  0  0  0
  7  8  1  0  0  0  0
  8  9  2  0  0  0  0
 10 11  2  0  0  0  0
 10 15  1  0  0  0  0
 11 12  1  0  0  0  0
 12 13  2  0  0  0  0
 13  3  1  0  0  0  0
 13 14  1  0  0  0  0
 14 15  2  0  0  0  0
 16 17  2  0  0  0  0
 16 21  1  0  0  0  0
 17 18  1  0  0  0  0
 18 19  2  0  0  0  0
 19  5  1  0  0  0  0
 19 20  1  0  0  0  0
 20 21  2  0  0  0  0
 22  3  1  0  0  0  0
 23  3  1  0  0  0  0
 24  5  1  0  0  0  0
 25  5  1  0  0  0  0
M  END
>  <CHROM.1>
30.50395176,34.12362824,1.26350624,178.15289896,1.16465095,1.58682356,-2.06452988
0.01077528,-1.38739749,1.31783029,-0.98581783

>  <Name>
1q8n_lig

>  <RI>
0

>  <Rbt.Current_Directory>
/home/itssahil/PROJECTS/Mol_Feturizer/New_Systems/rnas/1q8n

>  <Rbt.Executable>
rbdock ($Id: //depot/dev/client3/rdock/2013.1/src/exe/rbdock.cxx#4 $)

>  <Rbt.Library>
libRbt.so (2013.1, Build901 2013/11/27)

>  <Rbt.Parameter_File>
/export/apps/rDock/src/rDock_2013.1_src/data/scripts/dock_solv.prm

>  <Rbt.Receptor>
prm/pocket_docking_8.prm

>  <SCORE>
-44.3001

>  <SCORE.INTER>
-44.6749

>  <SCORE.INTER.CONST>
1

>  <SCORE.INTER.POLAR>
0

>  <SCORE.INTER.ROT>
5

>  <SCORE.INTER.SOLV>
9.28048

>  <SCORE.INTER.VDW>
-39.8101

>  <SCORE.INTER.norm>
-1.787

>  <SCORE.INTRA>
0.374838

>  <SCORE.INTRA.DIHEDRAL>
0.0148127

>  <SCORE.INTRA.DIHEDRAL.0>
2.1627

>  <SCORE.INTRA.POLAR>
0

>  <SCORE.INTRA.POLAR.0>
0

>  <SCORE.INTRA.REPUL>
0

>  <SCORE.INTRA.REPUL.0>
0

>  <SCORE.INTRA.SOLV>
0.0419417

>  <SCORE.INTRA.SOLV.lig_0>
-5.95779

>  <SCORE.INTRA.VDW>
0.34646

>  <SCORE.INTRA.VDW.0>
3.81702

>  <SCORE.INTRA.norm>
0.0149935

>  <SCORE.RESTR>
0

>  <SCORE.RESTR.CAVITY>
0

>  <SCORE.RESTR.norm>
0

>  <SCORE.SYSTEM>
0

>  <SCORE.SYSTEM.CONST>
0

>  <SCORE.SYSTEM.DIHEDRAL>
0

>  <SCORE.SYSTEM.SOLV>
0

>  <SCORE.SYSTEM.norm>
0

>  <SCORE.heavy>
25

>  <SCORE.norm>
-1.772

>  <RMSD>
6.526

$$$$
1q8n_lig
 OpenBabel11021811403D
libRbt.so/2013.1/901 2013/11/27
 25 27  0  0  0  0  0  0  0  0999 V2000
    1.4239   -2.2280   -0.5373 C   0  0  0  0  0  0  0  0  0  0  0  0
    1.8025   -3.5365   -1.4372 C   0  0  0  0  0  0  0  0  0  0  0  0
    0.5501    2.9487   -3.3409 N   0  0  0  0  0  0  0  0  0  0  0  0
    2.3762   -3.4609   -2.6619 C   0  0  0  0  0  0  0  0  0  0  0  0
    1.0108   -2.7675    5.4168 N   0  0  0  0  0  0  0  0  0  0  0  0
    2.6986   -4.6736   -3.4488 C   0  0  0  0  0  0  0  0  0  0  0  0
    2.4194   -5.8965   -2.9423 C   0  0  0  0  0  0  0  0  0  0  0  0
    1.8139   -6.0001   -1.6352 C   0  0  0  0  0  0  0  0  0  0  0  0
    1.5263   -4.8992   -0.9363 C   0  0  0  0  0  0  0  0  0  0  0  0
    1.1841   -0.8068   -1.3008 C   0  0  0  0  0  0  0  0  0  0  0  0
    1.3005    0.3672   -0.6462 C   0  0  0  0  0  0  0  0  0  0  0  0
    1.0851    1.6740   -1.3271 C   0  0  0  0  0  0  0  0  0  0  0  0
    0.7635    1.7126   -2.6479 C   0  0  0  0  0  0  0  0  0  0  0  0
    0.6349    0.4370   -3.3775 C   0  0  0  0  0  0  0  0  0  0  0  0
    0.8304   -0.7305   -2.7487 C   0  0  0  0  0  0  0  0  0  0  0  0
    1.2823   -2.3150    1.1123 C   0  0  0  0  0  0  0  0  0  0  0  0
    1.5348   -3.6196    1.8164 C   0  0  0  0  0  0  0  0  0  0  0  0
    1.4470   -3.7545    3.1424 C   0  0  0  0  0  0  0  0  0  0  0  0
    1.0915   -2.6137    3.9944 C   0  0  0  0  0  0  0  0  0  0  0  0
    0.8487   -1.4210    3.4122 C   0  0  0  0  0  0  0  0  0  0  0  0
    0.9458   -1.2570    1.9228 C   0  0  0  0  0  0  0  0  0  0  0  0
    0.8669    4.2164   -2.7569 C   0  0  0  0  0  0  0  0  0  0  0  0
    0.0043    2.9468   -4.6628 C   0  0  0  0  0  0  0  0  0  0  0  0
    1.1019   -4.0698    6.0118 C   0  0  0  0  0  0  0  0  0  0  0  0
    0.8428   -1.6252    6.2866 C   0  0  0  0  0  0  0  0  0  0  0  0
  1  2  1  0  0  0  0
  1 10  1  0  0  0  0
  1 16  1  0  0  0  0
  2  4  2  0  0  0  0
  2  9  1  0  0  0  0
  4  6  1  0  0  0  0
  6  7  2  0  0  0  0
  7  8  1  0  0  0  0
  8  9  2  0  0  0  0
 10 11  2  0  0  0  0
 10 15  1  0  0  0  0
 11 12  1  0  0  0  0
 12 13  2  0  0  0  0
 13  3  1  0  0  0  0
 13 14  1  0  0  0  0
 14 15  2  0  0  0  0
 16 17  2  0  0  0  0
 16 21  1  0  0  0  0
 17 18  1  0  0  0  0
 18 19  2  0  0  0  0
 19  5  1  0  0  0  0
 19 20  1  0  0  0  0
 20 21  2  0  0  0  0
 22  3  1  0  0  0  0
 23  3  1  0  0  0  0
 24  5  1  0  0  0  0
 25  5  1  0  0  0  0
M  END
>  <CHROM.1>
23.84555527,-158.19343045,1.33647528,10.25158618,-8.24167592,1.23963055,-1.59731561
-0.09286998,-1.78195763,-1.36312962,1.94495633

>  <Name>
1q8n_lig

>  <RI>
0

>  <Rbt.Current_Directory>
/home/itssahil/PROJECTS/Mol_Feturizer/New_Systems/rnas/1q8n

>  <Rbt.Executable>
rbdock ($Id: //depot/dev/client3/rdock/2013.1/src/exe/rbdock.cxx#4 $)

>  <Rbt.Library>
libRbt.so (2013.1, Build901 2013/11/27)

>  <Rbt.Parameter_File>
/export/apps/rDock/src/rDock_2013.1_src/data/scripts/dock_solv.prm

>  <Rbt.Receptor>
prm/blind_docking_80.prm

>  <SCORE>
-35.6617

>  <SCORE.INTER>
-36.5956

>  <SCORE.INTER.CONST>
1

>  <SCORE.INTER.POLAR>
0

>  <SCORE.INTER.ROT>
5

>  <SCORE.INTER.SOLV>
7.94385

>  <SCORE.INTER.VDW>
-33.9783

>  <SCORE.INTER.norm>
-1.46382

>  <SCORE.INTRA>
0.930461

>  <SCORE.INTRA.DIHEDRAL>
0.667469

>  <SCORE.INTRA.DIHEDRAL.0>
2.1627

>  <SCORE.INTRA.POLAR>
0

>  <SCORE.INTRA.POLAR.0>
0

>  <SCORE.INTRA.REPUL>
0

>  <SCORE.INTRA.REPUL.0>
0

>  <SCORE.INTRA.SOLV>
0.0591563

>  <SCORE.INTRA.SOLV.lig_0>
-5.95779

>  <SCORE.INTRA.VDW>
0.567148

>  <SCORE.INTRA.VDW.0>
3.81702

>  <SCORE.INTRA.norm>
0.0372185

>  <SCORE.RESTR>
0.00339322

>  <SCORE.RESTR.CAVITY>
0.00339322

>  <SCORE.RESTR.norm>
0.000135729

>  <SCORE.SYSTEM>
0

>  <SCORE.SYSTEM.CONST>
0

>  <SCORE.SYSTEM.DIHEDRAL>
0

>  <SCORE.SYSTEM.SOLV>
0

>  <SCORE.SYSTEM.norm>
0

>  <SCORE.heavy>
25

>  <SCORE.norm>
-1.42647

>  <RMSD>
6.531

$$$$
1q8n_lig
 OpenBabel11021811403D
libRbt.so/2013.1/901 2013/11/27
 25 27  0  0  0  0  0  0  0  0999 V2000
    2.1286   -3.5450   -2.2090 C   0  0  0  0  0  0  0  0  0  0  0  0
    1.6916   -4.5468   -0.9961 C   0  0  0  0  0  0  0  0  0  0  0  0
    0.7655    2.2270   -1.7107 N   0  0  0  0  0  0  0  0  0  0  0  0
    1.5044   -4.1368    0.2813 C   0  0  0  0  0  0  0  0  0  0  0  0
    5.2288   -5.4318   -6.9778 N   0  0  0  0  0  0  0  0  0  0  0  0
    1.1133   -5.0801    1.3541 C   0  0  0  0  0  0  0  0  0  0  0  0
    0.9333   -6.3892    1.0644 C   0  0  0  0  0  0  0  0  0  0  0  0
    1.1212   -6.8463   -0.2926 C   0  0  0  0  0  0  0  0  0  0  0  0
    1.4757   -5.9864   -1.2507 C   0  0  0  0  0  0  0  0  0  0  0  0
    1.7562   -1.9625   -2.0777 C   0  0  0  0  0  0  0  0  0  0  0  0
    1.5480   -1.1999   -3.1711 C   0  0  0  0  0  0  0  0  0  0  0  0
    1.2073    0.2463   -3.0702 C   0  0  0  0  0  0  0  0  0  0  0  0
    1.0937    0.8391   -1.8516 C   0  0  0  0  0  0  0  0  0  0  0  0
    1.3164    0.0175   -0.6468 C   0  0  0  0  0  0  0  0  0  0  0  0
    1.6242   -1.2825   -0.7558 C   0  0  0  0  0  0  0  0  0  0  0  0
    2.9299   -4.0976   -3.5510 C   0  0  0  0  0  0  0  0  0  0  0  0
    4.3146   -3.5953   -3.8545 C   0  0  0  0  0  0  0  0  0  0  0  0
    5.0175   -4.0072   -4.9131 C   0  0  0  0  0  0  0  0  0  0  0  0
    4.4615   -4.9890   -5.8515 C   0  0  0  0  0  0  0  0  0  0  0  0
    3.2198   -5.4674   -5.6287 C   0  0  0  0  0  0  0  0  0  0  0  0
    2.4208   -5.0129   -4.4412 C   0  0  0  0  0  0  0  0  0  0  0  0
    0.3409    2.7888   -0.4647 C   0  0  0  0  0  0  0  0  0  0  0  0
    0.8570    3.1051   -2.8358 C   0  0  0  0  0  0  0  0  0  0  0  0
    6.6542   -5.2695   -6.9932 C   0  0  0  0  0  0  0  0  0  0  0  0
    4.5960   -6.0547   -8.1185 C   0  0  0  0  0  0  0  0  0  0  0  0
  1  2  1  0  0  0  0
  1 10  1  0  0  0  0
  1 16  1  0  0  0  0
  2  4  2  0  0  0  0
  2  9  1  0  0  0  0
  4  6  1  0  0  0  0
  6  7  2  0  0  0  0
  7  8  1  0  0  0  0
  8  9  2  0  0  0  0
 10 11  2  0  0  0  0
 10 15  1  0  0  0  0
 11 12  1  0  0  0  0
 12 13  2  0  0  0  0
 13  3  1  0  0  0  0
 13 14  1  0  0  0  0
 14 15  2  0  0  0  0
 16 17  2  0  0  0  0
 16 21  1  0  0  0  0
 17 18  1  0  0  0  0
 18 19  2  0  0  0  0
 19  5  1  0  0  0  0
 19 20  1  0  0  0  0
 20 21  2  0  0  0  0
 22  3  1  0  0  0  0
 23  3  1  0  0  0  0
 24  5  1  0  0  0  0
 25  5  1  0  0  0  0
M  END
>  <CHROM.1>
-25.44202228,-151.50601435,-117.41550022,165.14331920,19.52049201,2.39437899
-2.97897646,-2.81135928,2.59474055,1.05193402,-0.31908973

>  <Name>
1q8n_lig

>  <RI>
0

>  <Rbt.Current_Directory>
/home/itssahil/PROJECTS/Mol_Feturizer/New_Systems/rnas/1q8n

>  <Rbt.Executable>
rbdock ($Id: //depot/dev/client3/rdock/2013.1/src/exe/rbdock.cxx#4 $)

>  <Rbt.Library>
libRbt.so (2013.1, Build901 2013/11/27)

>  <Rbt.Parameter_File>
/export/apps/rDock/src/rDock_2013.1_src/data/scripts/dock_solv.prm

>  <Rbt.Receptor>
prm/blind_docking_80.prm

>  <SCORE>
-35.2283

>  <SCORE.INTER>
-35.9624

>  <SCORE.INTER.CONST>
1

>  <SCORE.INTER.POLAR>
0

>  <SCORE.INTER.ROT>
5

>  <SCORE.INTER.SOLV>
10.8777

>  <SCORE.INTER.VDW>
-34.5341

>  <SCORE.INTER.norm>
-1.43849

>  <SCORE.INTRA>
0.575111

>  <SCORE.INTRA.DIHEDRAL>
2.26717

>  <SCORE.INTRA.DIHEDRAL.0>
2.1627

>  <SCORE.INTRA.POLAR>
0

>  <SCORE.INTRA.POLAR.0>
0

>  <SCORE.INTRA.REPUL>
0

>  <SCORE.INTRA.REPUL.0>
0

>  <SCORE.INTRA.SOLV>
0.00749707

>  <SCORE.INTRA.SOLV.lig_0>
-5.95779

>  <SCORE.INTRA.VDW>
-0.562222

>  <SCORE.INTRA.VDW.0>
3.81702

>  <SCORE.INTRA.norm>
0.0230045

>  <SCORE.RESTR>
0.158905

>  <SCORE.RESTR.CAVITY>
0.158905

>  <SCORE.RESTR.norm>
0.00635619

>  <SCORE.SYSTEM>
0

>  <SCORE.SYSTEM.CONST>
0

>  <SCORE.SYSTEM.DIHEDRAL>
0

>  <SCORE.SYSTEM.SOLV>
0

>  <SCORE.SYSTEM.norm>
0

>  <SCORE.heavy>
25

>  <SCORE.norm>
-1.40913

>  <RMSD>
6.535

$$$$
1q8n_lig
 OpenBabel11021811403D
libRbt.so/2013.1/901 2013/11/27
 25 27  0  0  0  0  0  0  0  0999 V2000
    2.1110   -3.5899   -2.1932 C   0  0  0  0  0  0  0  0  0  0  0  0
    1.6746   -4.6461   -1.0272 C   0  0  0  0  0  0  0  0  0  0  0  0
    0.3242    2.0669   -1.7144 N   0  0  0  0  0  0  0  0  0  0  0  0
    1.4926   -5.9701   -1.2480 C   0  0  0  0  0  0  0  0  0  0  0  0
    5.2417   -5.3940   -6.9741 N   0  0  0  0  0  0  0  0  0  0  0  0
    1.0905   -6.8941   -0.1625 C   0  0  0  0  0  0  0  0  0  0  0  0
    0.8977   -6.4169    1.0885 C   0  0  0  0  0  0  0  0  0  0  0  0
    1.0930   -5.0094    1.3473 C   0  0  0  0  0  0  0  0  0  0  0  0
    1.4538   -4.1861    0.3598 C   0  0  0  0  0  0  0  0  0  0  0  0
    1.6174   -2.0412   -2.0586 C   0  0  0  0  0  0  0  0  0  0  0  0
    0.7733   -1.6590   -1.0780 C   0  0  0  0  0  0  0  0  0  0  0  0
    0.3121   -0.2496   -0.9399 C   0  0  0  0  0  0  0  0  0  0  0  0
    0.7421    0.6997   -1.8135 C   0  0  0  0  0  0  0  0  0  0  0  0
    1.6672    0.2971   -2.8897 C   0  0  0  0  0  0  0  0  0  0  0  0
    2.0708   -0.9762   -3.0006 C   0  0  0  0  0  0  0  0  0  0  0  0
    3.0309   -4.0551   -3.4917 C   0  0  0  0  0  0  0  0  0  0  0  0
    2.5065   -5.0924   -4.4459 C   0  0  0  0  0  0  0  0  0  0  0  0
    3.1927   -5.5037   -5.5157 C   0  0  0  0  0  0  0  0  0  0  0  0
    4.5192   -4.9533   -5.8178 C   0  0  0  0  0  0  0  0  0  0  0  0
    5.0390   -4.0235   -4.9896 C   0  0  0  0  0  0  0  0  0  0  0  0
    4.2762   -3.5524   -3.7850 C   0  0  0  0  0  0  0  0  0  0  0  0
   -0.3496    2.5779   -0.5596 C   0  0  0  0  0  0  0  0  0  0  0  0
    0.5761    2.9754   -2.7897 C   0  0  0  0  0  0  0  0  0  0  0  0
    4.5456   -5.9727   -8.0872 C   0  0  0  0  0  0  0  0  0  0  0  0
    6.6791   -5.2644   -7.0551 C   0  0  0  0  0  0  0  0  0  0  0  0
  1  2  1  0  0  0  0
  1 10  1  0  0  0  0
  1 16  1  0  0  0  0
  2  4  2  0  0  0  0
  2  9  1  0  0  0  0
  4  6  1  0  0  0  0
  6  7  2  0  0  0  0
  7  8  1  0  0  0  0
  8  9  2  0  0  0  0
 10 11  2  0  0  0  0
 10 15  1  0  0  0  0
 11 12  1  0  0  0  0
 12 13  2  0  0  0  0
 13  3  1  0  0  0  0
 13 14  1  0  0  0  0
 14 15  2  0  0  0  0
 16 17  2  0  0  0  0
 16 21  1  0  0  0  0
 17 18  1  0  0  0  0
 18 19  2  0  0  0  0
 19  5  1  0  0  0  0
 19 20  1  0  0  0  0
 20 21  2  0  0  0  0
 22  3  1  0  0  0  0
 23  3  1  0  0  0  0
 24  5  1  0  0  0  0
 25  5  1  0  0  0  0
M  END
>  <CHROM.1>
150.51803034,-5.78375853,61.87977513,12.52073011,22.74285093,2.28002663,-3.02570843
-2.80743444,2.68614729,1.01322954,-0.38159654

>  <Name>
1q8n_lig

>  <RI>
0

>  <Rbt.Current_Directory>
/home/itssahil/PROJECTS/Mol_Feturizer/New_Systems/rnas/1q8n

>  <Rbt.Executable>
rbdock ($Id: //depot/dev/client3/rdock/2013.1/src/exe/rbdock.cxx#4 $)

>  <Rbt.Library>
libRbt.so (2013.1, Build901 2013/11/27)

>  <Rbt.Parameter_File>
/export/apps/rDock/src/rDock_2013.1_src/data/scripts/dock_solv.prm

>  <Rbt.Receptor>
prm/blind_docking_20.prm

>  <SCORE>
-34.4468

>  <SCORE.INTER>
-35.2643

>  <SCORE.INTER.CONST>
1

>  <SCORE.INTER.POLAR>
0

>  <SCORE.INTER.ROT>
5

>  <SCORE.INTER.SOLV>
10.2266

>  <SCORE.INTER.VDW>
-33.8517

>  <SCORE.INTER.norm>
-1.41057

>  <SCORE.INTRA>
0.74764

>  <SCORE.INTRA.DIHEDRAL>
2.51135

>  <SCORE.INTRA.DIHEDRAL.0>
2.1627

>  <SCORE.INTRA.POLAR>
0

>  <SCORE.INTRA.POLAR.0>
0

>  <SCORE.INTRA.REPUL>
0

>  <SCORE.INTRA.REPUL.0>
0

>  <SCORE.INTRA.SOLV>
0.0205761

>  <SCORE.INTRA.SOLV.lig_0>
-5.95779

>  <SCORE.INTRA.VDW>
-0.518323

>  <SCORE.INTRA.VDW.0>
3.81702

>  <SCORE.INTRA.norm>
0.0299056

>  <SCORE.RESTR>
0.0698735

>  <SCORE.RESTR.CAVITY>
0.0698735

>  <SCORE.RESTR.norm>
0.00279494

>  <SCORE.SYSTEM>
0

>  <SCORE.SYSTEM.CONST>
0

>  <SCORE.SYSTEM.DIHEDRAL>
0

>  <SCORE.SYSTEM.SOLV>
0

>  <SCORE.SYSTEM.norm>
0

>  <SCORE.heavy>
25

>  <SCORE.norm>
-1.37787

>  <RMSD>
6.539

$$$$
1q8n_lig
 OpenBabel11021811403D
libRbt.so/2013.1/901 2013/11/27
 25 27  0  0  0  0  0  0  0  0999 V2000
    1.7344   -2.7625   -0.5463 C   0  0  0  0  0  0  0  0  0  0  0  0
    2.1178   -3.8652   -1.6876 C   0  0  0  0  0  0  0  0  0  0  0  0
    0.8097    2.8691   -2.2349 N   0  0  0  0  0  0  0  0  0  0  0  0
    1.7726   -5.1727   -1.6095 C   0  0  0  0  0  0  0  0  0  0  0  0
    1.4687   -4.3530    5.2254 N   0  0  0  0  0  0  0  0  0  0  0  0
    2.1457   -6.1426   -2.6650 C   0  0  0  0  0  0  0  0  0  0  0  0
    2.8489   -5.7248   -3.7425 C   0  0  0  0  0  0  0  0  0  0  0  0
    3.2214   -4.3335   -3.8489 C   0  0  0  0  0  0  0  0  0  0  0  0
    2.8807   -3.4692   -2.8897 C   0  0  0  0  0  0  0  0  0  0  0  0
    1.4831   -1.2203   -1.0139 C   0  0  0  0  0  0  0  0  0  0  0  0
    1.5475   -0.8642   -2.3137 C   0  0  0  0  0  0  0  0  0  0  0  0
    1.3210    0.5388   -2.7587 C   0  0  0  0  0  0  0  0  0  0  0  0
    1.0363    1.5080   -1.8482 C   0  0  0  0  0  0  0  0  0  0  0  0
    0.9604    1.1333   -0.4235 C   0  0  0  0  0  0  0  0  0  0  0  0
    1.1689   -0.1340   -0.0400 C   0  0  0  0  0  0  0  0  0  0  0  0
    1.5991   -3.1742    1.0540 C   0  0  0  0  0  0  0  0  0  0  0  0
    2.6140   -4.0919    1.6780 C   0  0  0  0  0  0  0  0  0  0  0  0
    2.5677   -4.4545    2.9628 C   0  0  0  0  0  0  0  0  0  0  0  0
    1.5023   -3.9661    3.8461 C   0  0  0  0  0  0  0  0  0  0  0  0
    0.5623   -3.1444    3.3346 C   0  0  0  0  0  0  0  0  0  0  0  0
    0.6049   -2.7288    1.8922 C   0  0  0  0  0  0  0  0  0  0  0  0
    0.5349    3.8989   -1.2796 C   0  0  0  0  0  0  0  0  0  0  0  0
    0.8542    3.2414   -3.6150 C   0  0  0  0  0  0  0  0  0  0  0  0
    0.5717   -3.7050    6.1387 C   0  0  0  0  0  0  0  0  0  0  0  0
    2.3251   -5.4017    5.7315 C   0  0  0  0  0  0  0  0  0  0  0  0
  1  2  1  0  0  0  0
  1 10  1  0  0  0  0
  1 16  1  0  0  0  0
  2  4  2  0  0  0  0
  2  9  1  0  0  0  0
  4  6  1  0  0  0  0
  6  7  2  0  0  0  0
  7  8  1  0  0  0  0
  8  9  2  0  0  0  0
 10 11  2  0  0  0  0
 10 15  1  0  0  0  0
 11 12  1  0  0  0  0
 12 13  2  0  0  0  0
 13  3  1  0  0  0  0
 13 14  1  0  0  0  0
 14 15  2  0  0  0  0
 16 17  2  0  0  0  0
 16 21  1  0  0  0  0
 17 18  1  0  0  0  0
 18 19  2  0  0  0  0
 19  5  1  0  0  0  0
 19 20  1  0  0  0  0
 20 21  2  0  0  0  0
 22  3  1  0  0  0  0
 23  3  1  0  0  0  0
 24  5  1  0  0  0  0
 25  5  1  0  0  0  0
M  END
>  <CHROM.1>
-148.83260582,2.03518451,42.71914470,-178.78032634,169.37886700,1.59512607
-2.17090940,0.02467947,-1.78239152,-1.30763476,2.10712315

>  <Name>
1q8n_lig

>  <RI>
0

>  <Rbt.Current_Directory>
/home/itssahil/PROJECTS/Mol_Feturizer/New_Systems/rnas/1q8n

>  <Rbt.Executable>
rbdock ($Id: //depot/dev/client3/rdock/2013.1/src/exe/rbdock.cxx#4 $)

>  <Rbt.Library>
libRbt.so (2013.1, Build901 2013/11/27)

>  <Rbt.Parameter_File>
/export/apps/rDock/src/rDock_2013.1_src/data/scripts/dock_solv.prm

>  <Rbt.Receptor>
prm/blind_docking_40.prm

>  <SCORE>
-44.439

>  <SCORE.INTER>
-45.0589

>  <SCORE.INTER.CONST>
1

>  <SCORE.INTER.POLAR>
0

>  <SCORE.INTER.ROT>
5

>  <SCORE.INTER.SOLV>
9.23786

>  <SCORE.INTER.VDW>
-40.0519

>  <SCORE.INTER.norm>
-1.80236

>  <SCORE.INTRA>
0.619844

>  <SCORE.INTRA.DIHEDRAL>
0.437614

>  <SCORE.INTRA.DIHEDRAL.0>
2.1627

>  <SCORE.INTRA.POLAR>
0

>  <SCORE.INTRA.POLAR.0>
0

>  <SCORE.INTRA.REPUL>
0

>  <SCORE.INTRA.REPUL.0>
0

>  <SCORE.INTRA.SOLV>
0.0316227

>  <SCORE.INTRA.SOLV.lig_0>
-5.95779

>  <SCORE.INTRA.VDW>
0.385226

>  <SCORE.INTRA.VDW.0>
3.81702

>  <SCORE.INTRA.norm>
0.0247938

>  <SCORE.RESTR>
0

>  <SCORE.RESTR.CAVITY>
0

>  <SCORE.RESTR.norm>
0

>  <SCORE.SYSTEM>
0

>  <SCORE.SYSTEM.CONST>
0

>  <SCORE.SYSTEM.DIHEDRAL>
0

>  <SCORE.SYSTEM.SOLV>
0

>  <SCORE.SYSTEM.norm>
0

>  <SCORE.heavy>
25

>  <SCORE.norm>
-1.77756

>  <RMSD>
6.540

$$$$
1q8n_lig
 OpenBabel11021811403D
libRbt.so/2013.1/901 2013/11/27
 25 27  0  0  0  0  0  0  0  0999 V2000
    1.6869   -2.7095   -0.7062 C   0  0  0  0  0  0  0  0  0  0  0  0
    1.9459   -3.9117   -1.7799 C   0  0  0  0  0  0  0  0  0  0  0  0
    1.5396   -4.0600    5.0883 N   0  0  0  0  0  0  0  0  0  0  0  0
    2.4483   -3.7097   -3.0216 C   0  0  0  0  0  0  0  0  0  0  0  0
    0.8616    3.0292   -2.2227 N   0  0  0  0  0  0  0  0  0  0  0  0
    2.6628   -4.8285   -3.9681 C   0  0  0  0  0  0  0  0  0  0  0  0
    2.3546   -6.0919   -3.5953 C   0  0  0  0  0  0  0  0  0  0  0  0
    1.8240   -6.3304   -2.2734 C   0  0  0  0  0  0  0  0  0  0  0  0
    1.6334   -5.3130   -1.4297 C   0  0  0  0  0  0  0  0  0  0  0  0
    1.6494   -3.0840    0.8808 C   0  0  0  0  0  0  0  0  0  0  0  0
    2.4894   -4.0019    1.4027 C   0  0  0  0  0  0  0  0  0  0  0  0
    2.4693   -4.3563    2.8490 C   0  0  0  0  0  0  0  0  0  0  0  0
    1.5899   -3.7493    3.6902 C   0  0  0  0  0  0  0  0  0  0  0  0
    0.6668   -2.7419    3.1343 C   0  0  0  0  0  0  0  0  0  0  0  0
    0.6970   -2.4362    1.8297 C   0  0  0  0  0  0  0  0  0  0  0  0
    1.4633   -1.1399   -1.1912 C   0  0  0  0  0  0  0  0  0  0  0  0
    1.0546   -0.0982   -0.1865 C   0  0  0  0  0  0  0  0  0  0  0  0
    0.8676    1.1843   -0.5099 C   0  0  0  0  0  0  0  0  0  0  0  0
    1.0544    1.6490   -1.8893 C   0  0  0  0  0  0  0  0  0  0  0  0
    1.4153    0.7532   -2.8316 C   0  0  0  0  0  0  0  0  0  0  0  0
    1.6298   -0.6908   -2.4796 C   0  0  0  0  0  0  0  0  0  0  0  0
    2.4010   -5.0345    5.6857 C   0  0  0  0  0  0  0  0  0  0  0  0
    0.6078   -3.3890    5.9407 C   0  0  0  0  0  0  0  0  0  0  0  0
    0.9561    3.4660   -3.5860 C   0  0  0  0  0  0  0  0  0  0  0  0
    0.5629    4.0120   -1.2057 C   0  0  0  0  0  0  0  0  0  0  0  0
  1  2  1  0  0  0  0
  1 10  1  0  0  0  0
  1 16  1  0  0  0  0
  2  4  2  0  0  0  0
  2  9  1  0  0  0  0
  4  6  1  0  0  0  0
  6  7  2  0  0  0  0
  7  8  1  0  0  0  0
  8  9  2  0  0  0  0
 10 11  2  0  0  0  0
 10 15  1  0  0  0  0
 11 12  1  0  0  0  0
 12 13  2  0  0  0  0
 13  3  1  0  0  0  0
 13 14  1  0  0  0  0
 14 15  2  0  0  0  0
 16 17  2  0  0  0  0
 16 21  1  0  0  0  0
 17 18  1  0  0  0  0
 18 19  2  0  0  0  0
 19  5  1  0  0  0  0
 19 20  1  0  0  0  0
 20 21  2  0  0  0  0
 22  3  1  0  0  0  0
 23  3  1  0  0  0  0
 24  5  1  0  0  0  0
 25  5  1  0  0  0  0
M  END
>  <CHROM.1>
-156.42538864,38.24046241,172.19867290,-0.54526338,-175.78502897,1.52924374
-2.08852057,-0.04243301,-1.94172706,-1.37706425,2.00610051

>  <Name>
1q8n_lig

>  <RI>
0

>  <Rbt.Current_Directory>
/home/itssahil/PROJECTS/Mol_Feturizer/New_Systems/rnas/1q8n

>  <Rbt.Executable>
rbdock ($Id: //depot/dev/client3/rdock/2013.1/src/exe/rbdock.cxx#4 $)

>  <Rbt.Library>
libRbt.so (2013.1, Build901 2013/11/27)

>  <Rbt.Parameter_File>
/export/apps/rDock/src/rDock_2013.1_src/data/scripts/dock_solv.prm

>  <Rbt.Receptor>
prm/blind_docking_100.prm

>  <SCORE>
-43.0033

>  <SCORE.INTER>
-43.7886

>  <SCORE.INTER.CONST>
1

>  <SCORE.INTER.POLAR>
0

>  <SCORE.INTER.ROT>
5

>  <SCORE.INTER.SOLV>
8.90588

>  <SCORE.INTER.VDW>
-39.0943

>  <SCORE.INTER.norm>
-1.75154

>  <SCORE.INTRA>
0.495931

>  <SCORE.INTRA.DIHEDRAL>
0.0660388

>  <SCORE.INTRA.DIHEDRAL.0>
2.1627

>  <SCORE.INTRA.POLAR>
0

>  <SCORE.INTRA.POLAR.0>
0

>  <SCORE.INTRA.REPUL>
0

>  <SCORE.INTRA.REPUL.0>
0

>  <SCORE.INTRA.SOLV>
0.0432529

>  <SCORE.INTRA.SOLV.lig_0>
-5.95779

>  <SCORE.INTRA.VDW>
0.441285

>  <SCORE.INTRA.VDW.0>
3.81702

>  <SCORE.INTRA.norm>
0.0198372

>  <SCORE.RESTR>
0.289376

>  <SCORE.RESTR.CAVITY>
0.289376

>  <SCORE.RESTR.norm>
0.0115751

>  <SCORE.SYSTEM>
0

>  <SCORE.SYSTEM.CONST>
0

>  <SCORE.SYSTEM.DIHEDRAL>
0

>  <SCORE.SYSTEM.SOLV>
0

>  <SCORE.SYSTEM.norm>
0

>  <SCORE.heavy>
25

>  <SCORE.norm>
-1.72013

>  <RMSD>
6.553

$$$$
1q8n_lig
 OpenBabel11021811403D
libRbt.so/2013.1/901 2013/11/27
 25 27  0  0  0  0  0  0  0  0999 V2000
    1.7975   -2.9218   -0.6671 C   0  0  0  0  0  0  0  0  0  0  0  0
    2.1271   -4.0012   -1.8468 C   0  0  0  0  0  0  0  0  0  0  0  0
    0.7691    2.7362   -2.2002 N   0  0  0  0  0  0  0  0  0  0  0  0
    1.8036   -5.3144   -1.7701 C   0  0  0  0  0  0  0  0  0  0  0  0
    1.4285   -4.3527    5.1406 N   0  0  0  0  0  0  0  0  0  0  0  0
    2.1261   -6.2625   -2.8615 C   0  0  0  0  0  0  0  0  0  0  0  0
    2.7593   -5.8184   -3.9714 C   0  0  0  0  0  0  0  0  0  0  0  0
    3.1072   -4.4206   -4.0766 C   0  0  0  0  0  0  0  0  0  0  0  0
    2.8127   -3.5761   -3.0850 C   0  0  0  0  0  0  0  0  0  0  0  0
    1.5176   -1.3723   -1.0922 C   0  0  0  0  0  0  0  0  0  0  0  0
    1.5205   -0.9906   -2.3863 C   0  0  0  0  0  0  0  0  0  0  0  0
    1.2670    0.4195   -2.7927 C   0  0  0  0  0  0  0  0  0  0  0  0
    1.0198    1.3691   -1.8512 C   0  0  0  0  0  0  0  0  0  0  0  0
    1.0113    0.9663   -0.4322 C   0  0  0  0  0  0  0  0  0  0  0  0
    1.2433   -0.3070   -0.0837 C   0  0  0  0  0  0  0  0  0  0  0  0
    1.7443   -3.3640    0.9299 C   0  0  0  0  0  0  0  0  0  0  0  0
    0.9461   -2.5446    1.9061 C   0  0  0  0  0  0  0  0  0  0  0  0
    0.8544   -2.8517    3.2029 C   0  0  0  0  0  0  0  0  0  0  0  0
    1.5428   -4.0267    3.7499 C   0  0  0  0  0  0  0  0  0  0  0  0
    2.2780   -4.7929    2.9175 C   0  0  0  0  0  0  0  0  0  0  0  0
    2.3871   -4.4584    1.4577 C   0  0  0  0  0  0  0  0  0  0  0  0
    0.7982    3.1964   -3.5551 C   0  0  0  0  0  0  0  0  0  0  0  0
    0.4759    3.6961   -1.1814 C   0  0  0  0  0  0  0  0  0  0  0  0
    2.2264   -5.4018    5.7075 C   0  0  0  0  0  0  0  0  0  0  0  0
    0.5191   -3.6370    6.0067 C   0  0  0  0  0  0  0  0  0  0  0  0
  1  2  1  0  0  0  0
  1 10  1  0  0  0  0
  1 16  1  0  0  0  0
  2  4  2  0  0  0  0
  2  9  1  0  0  0  0
  4  6  1  0  0  0  0
  6  7  2  0  0  0  0
  7  8  1  0  0  0  0
  8  9  2  0  0  0  0
 10 11  2  0  0  0  0
 10 15  1  0  0  0  0
 11 12  1  0  0  0  0
 12 13  2  0  0  0  0
 13  3  1  0  0  0  0
 13 14  1  0  0  0  0
 14 15  2  0  0  0  0
 16 17  2  0  0  0  0
 16 21  1  0  0  0  0
 17 18  1  0  0  0  0
 18 19  2  0  0  0  0
 19  5  1  0  0  0  0
 19 20  1  0  0  0  0
 20 21  2  0  0  0  0
 22  3  1  0  0  0  0
 23  3  1  0  0  0  0
 24  5  1  0  0  0  0
 25  5  1  0  0  0  0
M  END
>  <CHROM.1>
-149.56830721,1.77306533,-156.15572419,-1.72783042,-172.45170020,1.58589996
-2.26930019,-0.05997578,-1.78907925,-1.32078324,2.08463440

>  <Name>
1q8n_lig

>  <RI>
0

>  <Rbt.Current_Directory>
/home/itssahil/PROJECTS/Mol_Feturizer/New_Systems/rnas/1q8n

>  <Rbt.Executable>
rbdock ($Id: //depot/dev/client3/rdock/2013.1/src/exe/rbdock.cxx#4 $)

>  <Rbt.Library>
libRbt.so (2013.1, Build901 2013/11/27)

>  <Rbt.Parameter_File>
/export/apps/rDock/src/rDock_2013.1_src/data/scripts/dock_solv.prm

>  <Rbt.Receptor>
prm/blind_docking_40.prm

>  <SCORE>
-45.3851

>  <SCORE.INTER>
-46.3889

>  <SCORE.INTER.CONST>
1

>  <SCORE.INTER.POLAR>
0

>  <SCORE.INTER.ROT>
5

>  <SCORE.INTER.SOLV>
9.24627

>  <SCORE.INTER.VDW>
-40.9414

>  <SCORE.INTER.norm>
-1.85556

>  <SCORE.INTRA>
1.00386

>  <SCORE.INTRA.DIHEDRAL>
0.230797

>  <SCORE.INTRA.DIHEDRAL.0>
2.1627

>  <SCORE.INTRA.POLAR>
0

>  <SCORE.INTRA.POLAR.0>
0

>  <SCORE.INTRA.REPUL>
0

>  <SCORE.INTRA.REPUL.0>
0

>  <SCORE.INTRA.SOLV>
0.0531672

>  <SCORE.INTRA.SOLV.lig_0>
-5.95779

>  <SCORE.INTRA.VDW>
0.861873

>  <SCORE.INTRA.VDW.0>
3.81702

>  <SCORE.INTRA.norm>
0.0401542

>  <SCORE.RESTR>
0

>  <SCORE.RESTR.CAVITY>
0

>  <SCORE.RESTR.norm>
0

>  <SCORE.SYSTEM>
0

>  <SCORE.SYSTEM.CONST>
0

>  <SCORE.SYSTEM.DIHEDRAL>
0

>  <SCORE.SYSTEM.SOLV>
0

>  <SCORE.SYSTEM.norm>
0

>  <SCORE.heavy>
25

>  <SCORE.norm>
-1.8154

>  <RMSD>
6.553

$$$$
1q8n_lig
 OpenBabel11021811403D
libRbt.so/2013.1/901 2013/11/27
 25 27  0  0  0  0  0  0  0  0999 V2000
    2.1911   -3.5898   -2.1953 C   0  0  0  0  0  0  0  0  0  0  0  0
    1.7123   -4.6484   -1.0483 C   0  0  0  0  0  0  0  0  0  0  0  0
    0.6742    2.1333   -1.5900 N   0  0  0  0  0  0  0  0  0  0  0  0
    1.5238   -4.3096    0.2496 C   0  0  0  0  0  0  0  0  0  0  0  0
    5.2007   -5.4501   -7.0321 N   0  0  0  0  0  0  0  0  0  0  0  0
    1.0940   -5.3029    1.2608 C   0  0  0  0  0  0  0  0  0  0  0  0
    0.8788   -6.5864    0.8919 C   0  0  0  0  0  0  0  0  0  0  0  0
    1.0674   -6.9676   -0.4883 C   0  0  0  0  0  0  0  0  0  0  0  0
    1.4569   -6.0632   -1.3903 C   0  0  0  0  0  0  0  0  0  0  0  0
    1.7739   -2.0223   -2.0243 C   0  0  0  0  0  0  0  0  0  0  0  0
    1.5633   -1.4837   -0.8054 C   0  0  0  0  0  0  0  0  0  0  0  0
    1.1818   -0.0548   -0.6304 C   0  0  0  0  0  0  0  0  0  0  0  0
    1.0379    0.7528   -1.7150 C   0  0  0  0  0  0  0  0  0  0  0  0
    1.2671    0.1785   -3.0542 C   0  0  0  0  0  0  0  0  0  0  0  0
    1.6081   -1.1102   -3.1938 C   0  0  0  0  0  0  0  0  0  0  0  0
    3.0784   -4.0709   -3.5107 C   0  0  0  0  0  0  0  0  0  0  0  0
    2.5235   -5.1081   -4.4477 C   0  0  0  0  0  0  0  0  0  0  0  0
    3.1825   -5.5318   -5.5295 C   0  0  0  0  0  0  0  0  0  0  0  0
    4.5075   -4.9961   -5.8631 C   0  0  0  0  0  0  0  0  0  0  0  0
    5.0540   -4.0671   -5.0514 C   0  0  0  0  0  0  0  0  0  0  0  0
    4.3219   -3.5821   -3.8333 C   0  0  0  0  0  0  0  0  0  0  0  0
    0.6708    3.0266   -2.7083 C   0  0  0  0  0  0  0  0  0  0  0  0
    0.2962    2.6648   -0.3173 C   0  0  0  0  0  0  0  0  0  0  0  0
    4.4790   -6.0585   -8.1126 C   0  0  0  0  0  0  0  0  0  0  0  0
    6.6332   -5.3045   -7.1589 C   0  0  0  0  0  0  0  0  0  0  0  0
  1  2  1  0  0  0  0
  1 10  1  0  0  0  0
  1 16  1  0  0  0  0
  2  4  2  0  0  0  0
  2  9  1  0  0  0  0
  4  6  1  0  0  0  0
  6  7  2  0  0  0  0
  7  8  1  0  0  0  0
  8  9  2  0  0  0  0
 10 11  2  0  0  0  0
 10 15  1  0  0  0  0
 11 12  1  0  0  0  0
 12 13  2  0  0  0  0
 13  3  1  0  0  0  0
 13 14  1  0  0  0  0
 14 15  2  0  0  0  0
 16 17  2  0  0  0  0
 16 21  1  0  0  0  0
 17 18  1  0  0  0  0
 18 19  2  0  0  0  0
 19  5  1  0  0  0  0
 19 20  1  0  0  0  0
 20 21  2  0  0  0  0
 22  3  1  0  0  0  0
 23  3  1  0  0  0  0
 24  5  1  0  0  0  0
 25  5  1  0  0  0  0
M  END
>  <CHROM.1>
-29.61939542,27.52898120,59.08110899,172.62885741,21.17074432,2.37776241
-3.05395175,-2.82418087,2.58640006,1.04518836,-0.30104885

>  <Name>
1q8n_lig

>  <RI>
0

>  <Rbt.Current_Directory>
/home/itssahil/PROJECTS/Mol_Feturizer/New_Systems/rnas/1q8n

>  <Rbt.Executable>
rbdock ($Id: //depot/dev/client3/rdock/2013.1/src/exe/rbdock.cxx#4 $)

>  <Rbt.Library>
libRbt.so (2013.1, Build901 2013/11/27)

>  <Rbt.Parameter_File>
/export/apps/rDock/src/rDock_2013.1_src/data/scripts/dock_solv.prm

>  <Rbt.Receptor>
prm/blind_docking_20.prm

>  <SCORE>
-34.0307

>  <SCORE.INTER>
-34.7669

>  <SCORE.INTER.CONST>
1

>  <SCORE.INTER.POLAR>
0

>  <SCORE.INTER.ROT>
5

>  <SCORE.INTER.SOLV>
10.8832

>  <SCORE.INTER.VDW>
-33.739

>  <SCORE.INTER.norm>
-1.39068

>  <SCORE.INTRA>
0.595537

>  <SCORE.INTRA.DIHEDRAL>
1.87505

>  <SCORE.INTRA.DIHEDRAL.0>
2.1627

>  <SCORE.INTRA.POLAR>
0

>  <SCORE.INTRA.POLAR.0>
0

>  <SCORE.INTRA.REPUL>
0

>  <SCORE.INTRA.REPUL.0>
0

>  <SCORE.INTRA.SOLV>
0.0125329

>  <SCORE.INTRA.SOLV.lig_0>
-5.95779

>  <SCORE.INTRA.VDW>
-0.348257

>  <SCORE.INTRA.VDW.0>
3.81702

>  <SCORE.INTRA.norm>
0.0238215

>  <SCORE.RESTR>
0.140679

>  <SCORE.RESTR.CAVITY>
0.140679

>  <SCORE.RESTR.norm>
0.00562717

>  <SCORE.SYSTEM>
0

>  <SCORE.SYSTEM.CONST>
0

>  <SCORE.SYSTEM.DIHEDRAL>
0

>  <SCORE.SYSTEM.SOLV>
0

>  <SCORE.SYSTEM.norm>
0

>  <SCORE.heavy>
25

>  <SCORE.norm>
-1.36123

>  <RMSD>
6.557

$$$$
1q8n_lig
 OpenBabel11021811403D
libRbt.so/2013.1/901 2013/11/27
 25 27  0  0  0  0  0  0  0  0999 V2000
    1.6144   -2.9336   -0.7351 C   0  0  0  0  0  0  0  0  0  0  0  0
    1.9087   -4.0334   -1.9052 C   0  0  0  0  0  0  0  0  0  0  0  0
    0.6868    2.7240   -2.3326 N   0  0  0  0  0  0  0  0  0  0  0  0
    1.8119   -5.3711   -1.7152 C   0  0  0  0  0  0  0  0  0  0  0  0
    1.2706   -4.2879    5.0925 N   0  0  0  0  0  0  0  0  0  0  0  0
    2.0935   -6.3361   -2.8031 C   0  0  0  0  0  0  0  0  0  0  0  0
    2.4568   -5.8832   -4.0249 C   0  0  0  0  0  0  0  0  0  0  0  0
    2.5595   -4.4605   -4.2510 C   0  0  0  0  0  0  0  0  0  0  0  0
    2.3049   -3.6006   -3.2616 C   0  0  0  0  0  0  0  0  0  0  0  0
    1.3649   -1.3831   -1.1754 C   0  0  0  0  0  0  0  0  0  0  0  0
    2.1067   -0.8024   -2.1413 C   0  0  0  0  0  0  0  0  0  0  0  0
    1.8930    0.6118   -2.5562 C   0  0  0  0  0  0  0  0  0  0  0  0
    0.9261    1.3607   -1.9615 C   0  0  0  0  0  0  0  0  0  0  0  0
    0.1056    0.7387   -0.9052 C   0  0  0  0  0  0  0  0  0  0  0  0
    0.3125   -0.5350   -0.5427 C   0  0  0  0  0  0  0  0  0  0  0  0
    1.5664   -3.3564    0.8673 C   0  0  0  0  0  0  0  0  0  0  0  0
    0.8092   -2.4995    1.8440 C   0  0  0  0  0  0  0  0  0  0  0  0
    0.7235   -2.7892    3.1452 C   0  0  0  0  0  0  0  0  0  0  0  0
    1.3782   -3.9811    3.6969 C   0  0  0  0  0  0  0  0  0  0  0  0
    2.0761   -4.7811    2.8642 C   0  0  0  0  0  0  0  0  0  0  0  0
    2.1780   -4.4664    1.3994 C   0  0  0  0  0  0  0  0  0  0  0  0
    0.4328    3.7462   -1.3635 C   0  0  0  0  0  0  0  0  0  0  0  0
    0.6969    3.1063   -3.7107 C   0  0  0  0  0  0  0  0  0  0  0  0
    0.4045   -3.5191    5.9393 C   0  0  0  0  0  0  0  0  0  0  0  0
    2.0198   -5.3746    5.6817 C   0  0  0  0  0  0  0  0  0  0  0  0
  1  2  1  0  0  0  0
  1 10  1  0  0  0  0
  1 16  1  0  0  0  0
  2  4  2  0  0  0  0
  2  9  1  0  0  0  0
  4  6  1  0  0  0  0
  6  7  2  0  0  0  0
  7  8  1  0  0  0  0
  8  9  2  0  0  0  0
 10 11  2  0  0  0  0
 10 15  1  0  0  0  0
 11 12  1  0  0  0  0
 12 13  2  0  0  0  0
 13  3  1  0  0  0  0
 13 14  1  0  0  0  0
 14 15  2  0  0  0  0
 16 17  2  0  0  0  0
 16 21  1  0  0  0  0
 17 18  1  0  0  0  0
 18 19  2  0  0  0  0
 19  5  1  0  0  0  0
 19 20  1  0  0  0  0
 20 21  2  0  0  0  0
 22  3  1  0  0  0  0
 23  3  1  0  0  0  0
 24  5  1  0  0  0  0
 25  5  1  0  0  0  0
M  END
>  <CHROM.1>
-163.50547013,-40.98901908,-156.87113989,-137.98387044,6.84344005,1.41217701
-2.27147685,-0.14159667,-1.37398306,1.32927412,-1.04188810

>  <Name>
1q8n_lig

>  <RI>
0

>  <Rbt.Current_Directory>
/home/itssahil/PROJECTS/Mol_Feturizer/New_Systems/rnas/1q8n

>  <Rbt.Executable>
rbdock ($Id: //depot/dev/client3/rdock/2013.1/src/exe/rbdock.cxx#4 $)

>  <Rbt.Library>
libRbt.so (2013.1, Build901 2013/11/27)

>  <Rbt.Parameter_File>
/export/apps/rDock/src/rDock_2013.1_src/data/scripts/dock_solv.prm

>  <Rbt.Receptor>
prm/blind_docking_40.prm

>  <SCORE>
-42.7261

>  <SCORE.INTER>
-44.5327

>  <SCORE.INTER.CONST>
1

>  <SCORE.INTER.POLAR>
0

>  <SCORE.INTER.ROT>
5

>  <SCORE.INTER.SOLV>
8.92273

>  <SCORE.INTER.VDW>
-39.596

>  <SCORE.INTER.norm>
-1.78131

>  <SCORE.INTRA>
1.80661

>  <SCORE.INTRA.DIHEDRAL>
5.91646

>  <SCORE.INTRA.DIHEDRAL.0>
2.1627

>  <SCORE.INTRA.POLAR>
0

>  <SCORE.INTRA.POLAR.0>
0

>  <SCORE.INTRA.REPUL>
0

>  <SCORE.INTRA.REPUL.0>
0

>  <SCORE.INTRA.SOLV>
0.0420561

>  <SCORE.INTRA.SOLV.lig_0>
-5.95779

>  <SCORE.INTRA.VDW>
-1.17265

>  <SCORE.INTRA.VDW.0>
3.81702

>  <SCORE.INTRA.norm>
0.0722645

>  <SCORE.RESTR>
0

>  <SCORE.RESTR.CAVITY>
0

>  <SCORE.RESTR.norm>
0

>  <SCORE.SYSTEM>
0

>  <SCORE.SYSTEM.CONST>
0

>  <SCORE.SYSTEM.DIHEDRAL>
0

>  <SCORE.SYSTEM.SOLV>
0

>  <SCORE.SYSTEM.norm>
0

>  <SCORE.heavy>
25

>  <SCORE.norm>
-1.70904

>  <RMSD>
6.561

$$$$
1q8n_lig
 OpenBabel11021811403D
libRbt.so/2013.1/901 2013/11/27
 25 27  0  0  0  0  0  0  0  0999 V2000
    1.8028   -2.8856   -0.5418 C   0  0  0  0  0  0  0  0  0  0  0  0
    2.0970   -3.9724   -1.7241 C   0  0  0  0  0  0  0  0  0  0  0  0
    0.8106    2.7790   -2.0745 N   0  0  0  0  0  0  0  0  0  0  0  0
    1.7884   -5.2876   -1.6242 C   0  0  0  0  0  0  0  0  0  0  0  0
    1.4857   -4.3463    5.2615 N   0  0  0  0  0  0  0  0  0  0  0  0
    2.0778   -6.2423   -2.7190 C   0  0  0  0  0  0  0  0  0  0  0  0
    2.6646   -5.8025   -3.8558 C   0  0  0  0  0  0  0  0  0  0  0  0
    2.9959   -4.4028   -3.9858 C   0  0  0  0  0  0  0  0  0  0  0  0
    2.7317   -3.5522   -2.9909 C   0  0  0  0  0  0  0  0  0  0  0  0
    1.5335   -1.3341   -0.9665 C   0  0  0  0  0  0  0  0  0  0  0  0
    1.6998   -0.9184   -2.2393 C   0  0  0  0  0  0  0  0  0  0  0  0
    1.4586    0.4941   -2.6450 C   0  0  0  0  0  0  0  0  0  0  0  0
    1.0555    1.4109   -1.7251 C   0  0  0  0  0  0  0  0  0  0  0  0
    0.8673    0.9707   -0.3298 C   0  0  0  0  0  0  0  0  0  0  0  0
    1.0906   -0.3042    0.0186 C   0  0  0  0  0  0  0  0  0  0  0  0
    1.7744   -3.3224    1.0573 C   0  0  0  0  0  0  0  0  0  0  0  0
    0.7453   -2.7253    1.9770 C   0  0  0  0  0  0  0  0  0  0  0  0
    0.6623   -3.0418    3.2721 C   0  0  0  0  0  0  0  0  0  0  0  0
    1.5908   -4.0062    3.8735 C   0  0  0  0  0  0  0  0  0  0  0  0
    2.5379   -4.5671    3.0932 C   0  0  0  0  0  0  0  0  0  0  0  0
    2.6397   -4.2202    1.6357 C   0  0  0  0  0  0  0  0  0  0  0  0
    0.9071    3.2523   -3.4217 C   0  0  0  0  0  0  0  0  0  0  0  0
    0.4549    3.7264   -1.0640 C   0  0  0  0  0  0  0  0  0  0  0  0
    0.5803   -3.6335    6.1163 C   0  0  0  0  0  0  0  0  0  0  0  0
    2.2769   -5.4116    5.8349 C   0  0  0  0  0  0  0  0  0  0  0  0
  1  2  1  0  0  0  0
  1 10  1  0  0  0  0
  1 16  1  0  0  0  0
  2  4  2  0  0  0  0
  2  9  1  0  0  0  0
  4  6  1  0  0  0  0
  6  7  2  0  0  0  0
  7  8  1  0  0  0  0
  8  9  2  0  0  0  0
 10 11  2  0  0  0  0
 10 15  1  0  0  0  0
 11 12  1  0  0  0  0
 12 13  2  0  0  0  0
 13  3  1  0  0  0  0
 13 14  1  0  0  0  0
 14 15  2  0  0  0  0
 16 17  2  0  0  0  0
 16 21  1  0  0  0  0
 17 18  1  0  0  0  0
 18 19  2  0  0  0  0
 19  5  1  0  0  0  0
 19 20  1  0  0  0  0
 20 21  2  0  0  0  0
 22  3  1  0  0  0  0
 23  3  1  0  0  0  0
 24  5  1  0  0  0  0
 25  5  1  0  0  0  0
M  END
>  <CHROM.1>
-151.21021512,-7.59650012,-140.45545748,3.29358070,-7.50863631,1.59682207
-2.24208059,0.06266124,-1.80039561,-1.32726337,2.07474829

>  <Name>
1q8n_lig

>  <RI>
0

>  <Rbt.Current_Directory>
/home/itssahil/PROJECTS/Mol_Feturizer/New_Systems/rnas/1q8n

>  <Rbt.Executable>
rbdock ($Id: //depot/dev/client3/rdock/2013.1/src/exe/rbdock.cxx#4 $)

>  <Rbt.Library>
libRbt.so (2013.1, Build901 2013/11/27)

>  <Rbt.Parameter_File>
/export/apps/rDock/src/rDock_2013.1_src/data/scripts/dock_solv.prm

>  <Rbt.Receptor>
prm/blind_docking_40.prm

>  <SCORE>
-44.9322

>  <SCORE.INTER>
-45.7853

>  <SCORE.INTER.CONST>
1

>  <SCORE.INTER.POLAR>
0

>  <SCORE.INTER.ROT>
5

>  <SCORE.INTER.SOLV>
9.18213

>  <SCORE.INTER.VDW>
-40.5176

>  <SCORE.INTER.norm>
-1.83141

>  <SCORE.INTRA>
0.853048

>  <SCORE.INTRA.DIHEDRAL>
0.260658

>  <SCORE.INTRA.DIHEDRAL.0>
2.1627

>  <SCORE.INTRA.POLAR>
0

>  <SCORE.INTRA.POLAR.0>
0

>  <SCORE.INTRA.REPUL>
0

>  <SCORE.INTRA.REPUL.0>
0

>  <SCORE.INTRA.SOLV>
0.0418983

>  <SCORE.INTRA.SOLV.lig_0>
-5.95779

>  <SCORE.INTRA.VDW>
0.701771

>  <SCORE.INTRA.VDW.0>
3.81702

>  <SCORE.INTRA.norm>
0.0341219

>  <SCORE.RESTR>
0

>  <SCORE.RESTR.CAVITY>
0

>  <SCORE.RESTR.norm>
0

>  <SCORE.SYSTEM>
0

>  <SCORE.SYSTEM.CONST>
0

>  <SCORE.SYSTEM.DIHEDRAL>
0

>  <SCORE.SYSTEM.SOLV>
0

>  <SCORE.SYSTEM.norm>
0

>  <SCORE.heavy>
25

>  <SCORE.norm>
-1.79729

>  <RMSD>
6.562

$$$$
1q8n_lig
 OpenBabel11021811403D
libRbt.so/2013.1/901 2013/11/27
 25 27  0  0  0  0  0  0  0  0999 V2000
    2.1994   -3.6139   -2.2828 C   0  0  0  0  0  0  0  0  0  0  0  0
    1.7443   -4.6711   -1.1249 C   0  0  0  0  0  0  0  0  0  0  0  0
    0.5261    2.0687   -1.7090 N   0  0  0  0  0  0  0  0  0  0  0  0
    1.5133   -5.9848   -1.3612 C   0  0  0  0  0  0  0  0  0  0  0  0
    5.2636   -5.4449   -7.0965 N   0  0  0  0  0  0  0  0  0  0  0  0
    1.0959   -6.9100   -0.2825 C   0  0  0  0  0  0  0  0  0  0  0  0
    0.9386   -6.4444    0.9779 C   0  0  0  0  0  0  0  0  0  0  0  0
    1.1863   -5.0484    1.2530 C   0  0  0  0  0  0  0  0  0  0  0  0
    1.5604   -4.2239    0.2716 C   0  0  0  0  0  0  0  0  0  0  0  0
    1.7428   -2.0556   -2.1305 C   0  0  0  0  0  0  0  0  0  0  0  0
    1.6763   -1.2384   -3.2020 C   0  0  0  0  0  0  0  0  0  0  0  0
    1.2615    0.1869   -3.0817 C   0  0  0  0  0  0  0  0  0  0  0  0
    0.9322    0.7036   -1.8676 C   0  0  0  0  0  0  0  0  0  0  0  0
    0.9980   -0.1785   -0.6871 C   0  0  0  0  0  0  0  0  0  0  0  0
    1.3752   -1.4586   -0.8130 C   0  0  0  0  0  0  0  0  0  0  0  0
    3.1016   -4.0875   -3.5906 C   0  0  0  0  0  0  0  0  0  0  0  0
    2.5531   -5.1114   -4.5458 C   0  0  0  0  0  0  0  0  0  0  0  0
    3.2243   -5.5285   -5.6228 C   0  0  0  0  0  0  0  0  0  0  0  0
    4.5572   -4.9982   -5.9325 C   0  0  0  0  0  0  0  0  0  0  0  0
    5.0984   -4.0812   -5.1039 C   0  0  0  0  0  0  0  0  0  0  0  0
    4.3526   -3.6037   -3.8911 C   0  0  0  0  0  0  0  0  0  0  0  0
    0.4819    2.9851   -2.8075 C   0  0  0  0  0  0  0  0  0  0  0  0
    0.1454    2.5605   -0.4212 C   0  0  0  0  0  0  0  0  0  0  0  0
    6.6848   -5.2737   -7.1925 C   0  0  0  0  0  0  0  0  0  0  0  0
    4.5725   -6.0807   -8.1954 C   0  0  0  0  0  0  0  0  0  0  0  0
  1  2  1  0  0  0  0
  1 10  1  0  0  0  0
  1 16  1  0  0  0  0
  2  4  2  0  0  0  0
  2  9  1  0  0  0  0
  4  6  1  0  0  0  0
  6  7  2  0  0  0  0
  7  8  1  0  0  0  0
  8  9  2  0  0  0  0
 10 11  2  0  0  0  0
 10 15  1  0  0  0  0
 11 12  1  0  0  0  0
 12 13  2  0  0  0  0
 13  3  1  0  0  0  0
 13 14  1  0  0  0  0
 14 15  2  0  0  0  0
 16 17  2  0  0  0  0
 16 21  1  0  0  0  0
 17 18  1  0  0  0  0
 18 19  2  0  0  0  0
 19  5  1  0  0  0  0
 19 20  1  0  0  0  0
 20 21  2  0  0  0  0
 22  3  1  0  0  0  0
 23  3  1  0  0  0  0
 24  5  1  0  0  0  0
 25  5  1  0  0  0  0
M  END
>  <CHROM.1>
149.62019160,-157.55882815,61.36421292,-2.03309428,-160.41500583,2.36881859
-3.05382947,-2.87017128,2.67650671,1.04084372,-0.36645334

>  <Name>
1q8n_lig

>  <RI>
0

>  <Rbt.Current_Directory>
/home/itssahil/PROJECTS/Mol_Feturizer/New_Systems/rnas/1q8n

>  <Rbt.Executable>
rbdock ($Id: //depot/dev/client3/rdock/2013.1/src/exe/rbdock.cxx#4 $)

>  <Rbt.Library>
libRbt.so (2013.1, Build901 2013/11/27)

>  <Rbt.Parameter_File>
/export/apps/rDock/src/rDock_2013.1_src/data/scripts/dock_solv.prm

>  <Rbt.Receptor>
prm/blind_docking_80.prm

>  <SCORE>
-34.9376

>  <SCORE.INTER>
-35.8493

>  <SCORE.INTER.CONST>
1

>  <SCORE.INTER.POLAR>
0

>  <SCORE.INTER.ROT>
5

>  <SCORE.INTER.SOLV>
10.4232

>  <SCORE.INTER.VDW>
-34.3073

>  <SCORE.INTER.norm>
-1.43397

>  <SCORE.INTRA>
0.624607

>  <SCORE.INTRA.DIHEDRAL>
1.45134

>  <SCORE.INTRA.DIHEDRAL.0>
2.1627

>  <SCORE.INTRA.POLAR>
0

>  <SCORE.INTRA.POLAR.0>
0

>  <SCORE.INTRA.REPUL>
0

>  <SCORE.INTRA.REPUL.0>
0

>  <SCORE.INTRA.SOLV>
0.0183062

>  <SCORE.INTRA.SOLV.lig_0>
-5.95779

>  <SCORE.INTRA.VDW>
-0.110215

>  <SCORE.INTRA.VDW.0>
3.81702

>  <SCORE.INTRA.norm>
0.0249843

>  <SCORE.RESTR>
0.28718

>  <SCORE.RESTR.CAVITY>
0.28718

>  <SCORE.RESTR.norm>
0.0114872

>  <SCORE.SYSTEM>
0

>  <SCORE.SYSTEM.CONST>
0

>  <SCORE.SYSTEM.DIHEDRAL>
0

>  <SCORE.SYSTEM.SOLV>
0

>  <SCORE.SYSTEM.norm>
0

>  <SCORE.heavy>
25

>  <SCORE.norm>
-1.3975

>  <RMSD>
6.565

$$$$
1q8n_lig
 OpenBabel11021811413D
libRbt.so/2013.1/901 2013/11/27
 25 27  0  0  0  0  0  0  0  0999 V2000
    1.7995   -2.8541   -0.6080 C   0  0  0  0  0  0  0  0  0  0  0  0
    2.1354   -3.9504   -1.7703 C   0  0  0  0  0  0  0  0  0  0  0  0
    0.8264    2.7908   -2.2235 N   0  0  0  0  0  0  0  0  0  0  0  0
    1.7878   -5.2570   -1.6882 C   0  0  0  0  0  0  0  0  0  0  0  0
    1.3140   -4.2621    5.1967 N   0  0  0  0  0  0  0  0  0  0  0  0
    2.1171   -6.2210   -2.7635 C   0  0  0  0  0  0  0  0  0  0  0  0
    2.7813   -5.7986   -3.8637 C   0  0  0  0  0  0  0  0  0  0  0  0
    3.1555   -4.4080   -3.9744 C   0  0  0  0  0  0  0  0  0  0  0  0
    2.8546   -3.5490   -2.9973 C   0  0  0  0  0  0  0  0  0  0  0  0
    1.5348   -1.3082   -1.0556 C   0  0  0  0  0  0  0  0  0  0  0  0
    1.5467   -0.9445   -2.3548 C   0  0  0  0  0  0  0  0  0  0  0  0
    1.3071    0.4619   -2.7818 C   0  0  0  0  0  0  0  0  0  0  0  0
    1.0639    1.4265   -1.8546 C   0  0  0  0  0  0  0  0  0  0  0  0
    1.0456    1.0435   -0.4302 C   0  0  0  0  0  0  0  0  0  0  0  0
    1.2651   -0.2268   -0.0632 C   0  0  0  0  0  0  0  0  0  0  0  0
    1.7250   -3.2758    0.9937 C   0  0  0  0  0  0  0  0  0  0  0  0
    0.6622   -2.6796    1.8749 C   0  0  0  0  0  0  0  0  0  0  0  0
    0.5416   -2.9844    3.1698 C   0  0  0  0  0  0  0  0  0  0  0  0
    1.4594   -3.9343    3.8094 C   0  0  0  0  0  0  0  0  0  0  0  0
    2.4355   -4.4938    3.0646 C   0  0  0  0  0  0  0  0  0  0  0  0
    2.5798   -4.1599    1.6077 C   0  0  0  0  0  0  0  0  0  0  0  0
    0.8941    3.2377   -3.5815 C   0  0  0  0  0  0  0  0  0  0  0  0
    0.5079    3.7612   -1.2224 C   0  0  0  0  0  0  0  0  0  0  0  0
    0.4088   -3.5198    6.0262 C   0  0  0  0  0  0  0  0  0  0  0  0
    2.0634   -5.3440    5.7946 C   0  0  0  0  0  0  0  0  0  0  0  0
  1  2  1  0  0  0  0
  1 10  1  0  0  0  0
  1 16  1  0  0  0  0
  2  4  2  0  0  0  0
  2  9  1  0  0  0  0
  4  6  1  0  0  0  0
  6  7  2  0  0  0  0
  7  8  1  0  0  0  0
  8  9  2  0  0  0  0
 10 11  2  0  0  0  0
 10 15  1  0  0  0  0
 11 12  1  0  0  0  0
 12 13  2  0  0  0  0
 13  3  1  0  0  0  0
 13 14  1  0  0  0  0
 14 15  2  0  0  0  0
 16 17  2  0  0  0  0
 16 21  1  0  0  0  0
 17 18  1  0  0  0  0
 18 19  2  0  0  0  0
 19  5  1  0  0  0  0
 19 20  1  0  0  0  0
 20 21  2  0  0  0  0
 22  3  1  0  0  0  0
 23  3  1  0  0  0  0
 24  5  1  0  0  0  0
 25  5  1  0  0  0  0
M  END
>  <CHROM.1>
-148.72328173,2.19869566,-140.24216114,-3.11395206,-9.62116450,1.57428575
-2.20592734,-0.01546954,-1.71614370,-1.31326357,2.14671285

>  <Name>
1q8n_lig

>  <RI>
0

>  <Rbt.Current_Directory>
/home/itssahil/PROJECTS/Mol_Feturizer/New_Systems/rnas/1q8n

>  <Rbt.Executable>
rbdock ($Id: //depot/dev/client3/rdock/2013.1/src/exe/rbdock.cxx#4 $)

>  <Rbt.Library>
libRbt.so (2013.1, Build901 2013/11/27)

>  <Rbt.Parameter_File>
/export/apps/rDock/src/rDock_2013.1_src/data/scripts/dock_solv.prm

>  <Rbt.Receptor>
prm/pocket_docking_8.prm

>  <SCORE>
-45.2751

>  <SCORE.INTER>
-45.9237

>  <SCORE.INTER.CONST>
1

>  <SCORE.INTER.POLAR>
0

>  <SCORE.INTER.ROT>
5

>  <SCORE.INTER.SOLV>
9.14355

>  <SCORE.INTER.VDW>
-40.597

>  <SCORE.INTER.norm>
-1.83695

>  <SCORE.INTRA>
0.648683

>  <SCORE.INTRA.DIHEDRAL>
0.394606

>  <SCORE.INTRA.DIHEDRAL.0>
2.1627

>  <SCORE.INTRA.POLAR>
0

>  <SCORE.INTRA.POLAR.0>
0

>  <SCORE.INTRA.REPUL>
0

>  <SCORE.INTRA.REPUL.0>
0

>  <SCORE.INTRA.SOLV>
0.0386079

>  <SCORE.INTRA.SOLV.lig_0>
-5.95779

>  <SCORE.INTRA.VDW>
0.432076

>  <SCORE.INTRA.VDW.0>
3.81702

>  <SCORE.INTRA.norm>
0.0259473

>  <SCORE.RESTR>
0

>  <SCORE.RESTR.CAVITY>
0

>  <SCORE.RESTR.norm>
0

>  <SCORE.SYSTEM>
0

>  <SCORE.SYSTEM.CONST>
0

>  <SCORE.SYSTEM.DIHEDRAL>
0

>  <SCORE.SYSTEM.SOLV>
0

>  <SCORE.SYSTEM.norm>
0

>  <SCORE.heavy>
25

>  <SCORE.norm>
-1.811

>  <RMSD>
6.565

$$$$
1q8n_lig
 OpenBabel11021811403D
libRbt.so/2013.1/901 2013/11/27
 25 27  0  0  0  0  0  0  0  0999 V2000
    1.8228   -2.8360   -0.6009 C   0  0  0  0  0  0  0  0  0  0  0  0
    2.1338   -3.9051   -1.7949 C   0  0  0  0  0  0  0  0  0  0  0  0
    0.8186    2.8353   -2.1007 N   0  0  0  0  0  0  0  0  0  0  0  0
    2.7250   -3.5669   -2.9658 C   0  0  0  0  0  0  0  0  0  0  0  0
    1.5181   -4.3201    5.1972 N   0  0  0  0  0  0  0  0  0  0  0  0
    2.9843   -4.5676   -4.0266 C   0  0  0  0  0  0  0  0  0  0  0  0
    2.6277   -5.8582   -3.8338 C   0  0  0  0  0  0  0  0  0  0  0  0
    2.0022   -6.2416   -2.5898 C   0  0  0  0  0  0  0  0  0  0  0  0
    1.7720   -5.3298   -1.6418 C   0  0  0  0  0  0  0  0  0  0  0  0
    1.5445   -1.2812   -1.0075 C   0  0  0  0  0  0  0  0  0  0  0  0
    1.0267   -0.4079   -0.1189 C   0  0  0  0  0  0  0  0  0  0  0  0
    0.7661    1.0151   -0.4727 C   0  0  0  0  0  0  0  0  0  0  0  0
    1.0522    1.4735   -1.7206 C   0  0  0  0  0  0  0  0  0  0  0  0
    1.6209    0.5307   -2.7023 C   0  0  0  0  0  0  0  0  0  0  0  0
    1.8475   -0.7473   -2.3678 C   0  0  0  0  0  0  0  0  0  0  0  0
    1.7864   -3.2936    0.9922 C   0  0  0  0  0  0  0  0  0  0  0  0
    1.0173   -2.4709    1.9888 C   0  0  0  0  0  0  0  0  0  0  0  0
    0.9401   -2.7897    3.2837 C   0  0  0  0  0  0  0  0  0  0  0  0
    1.6166   -3.9818    3.8082 C   0  0  0  0  0  0  0  0  0  0  0  0
    2.3258   -4.7517    2.9569 C   0  0  0  0  0  0  0  0  0  0  0  0
    2.4184   -4.4041    1.4990 C   0  0  0  0  0  0  0  0  0  0  0  0
    0.5140    3.8542   -1.1427 C   0  0  0  0  0  0  0  0  0  0  0  0
    0.8863    3.2194   -3.4766 C   0  0  0  0  0  0  0  0  0  0  0  0
    0.5758   -3.6452    6.0429 C   0  0  0  0  0  0  0  0  0  0  0  0
    2.3530   -5.3458    5.7806 C   0  0  0  0  0  0  0  0  0  0  0  0
  1  2  1  0  0  0  0
  1 10  1  0  0  0  0
  1 16  1  0  0  0  0
  2  4  2  0  0  0  0
  2  9  1  0  0  0  0
  4  6  1  0  0  0  0
  6  7  2  0  0  0  0
  7  8  1  0  0  0  0
  8  9  2  0  0  0  0
 10 11  2  0  0  0  0
 10 15  1  0  0  0  0
 11 12  1  0  0  0  0
 12 13  2  0  0  0  0
 13  3  1  0  0  0  0
 13 14  1  0  0  0  0
 14 15  2  0  0  0  0
 16 17  2  0  0  0  0
 16 21  1  0  0  0  0
 17 18  1  0  0  0  0
 18 19  2  0  0  0  0
 19  5  1  0  0  0  0
 19 20  1  0  0  0  0
 20 21  2  0  0  0  0
 22  3  1  0  0  0  0
 23  3  1  0  0  0  0
 24  5  1  0  0  0  0
 25  5  1  0  0  0  0
M  END
>  <CHROM.1>
29.19657921,166.74392098,-156.91972499,12.09462629,11.07306494,1.61179622
-2.22087941,0.01241989,-1.82895329,-1.33688838,2.07009707

>  <Name>
1q8n_lig

>  <RI>
0

>  <Rbt.Current_Directory>
/home/itssahil/PROJECTS/Mol_Feturizer/New_Systems/rnas/1q8n

>  <Rbt.Executable>
rbdock ($Id: //depot/dev/client3/rdock/2013.1/src/exe/rbdock.cxx#4 $)

>  <Rbt.Library>
libRbt.so (2013.1, Build901 2013/11/27)

>  <Rbt.Parameter_File>
/export/apps/rDock/src/rDock_2013.1_src/data/scripts/dock_solv.prm

>  <Rbt.Receptor>
prm/blind_docking_40.prm

>  <SCORE>
-44.4696

>  <SCORE.INTER>
-45.6108

>  <SCORE.INTER.CONST>
1

>  <SCORE.INTER.POLAR>
0

>  <SCORE.INTER.ROT>
5

>  <SCORE.INTER.SOLV>
9.17986

>  <SCORE.INTER.VDW>
-40.4005

>  <SCORE.INTER.norm>
-1.82443

>  <SCORE.INTRA>
1.14117

>  <SCORE.INTRA.DIHEDRAL>
1.03189

>  <SCORE.INTRA.DIHEDRAL.0>
2.1627

>  <SCORE.INTRA.POLAR>
0

>  <SCORE.INTRA.POLAR.0>
0

>  <SCORE.INTRA.REPUL>
0

>  <SCORE.INTRA.REPUL.0>
0

>  <SCORE.INTRA.SOLV>
0.0528471

>  <SCORE.INTRA.SOLV.lig_0>
-5.95779

>  <SCORE.INTRA.VDW>
0.598799

>  <SCORE.INTRA.VDW.0>
3.81702

>  <SCORE.INTRA.norm>
0.0456466

>  <SCORE.RESTR>
0

>  <SCORE.RESTR.CAVITY>
0

>  <SCORE.RESTR.norm>
0

>  <SCORE.SYSTEM>
0

>  <SCORE.SYSTEM.CONST>
0

>  <SCORE.SYSTEM.DIHEDRAL>
0

>  <SCORE.SYSTEM.SOLV>
0

>  <SCORE.SYSTEM.norm>
0

>  <SCORE.heavy>
25

>  <SCORE.norm>
-1.77879

>  <RMSD>
6.566

$$$$
1q8n_lig
 OpenBabel11021811403D
libRbt.so/2013.1/901 2013/11/27
 25 27  0  0  0  0  0  0  0  0999 V2000
    1.7526   -2.7601   -0.7093 C   0  0  0  0  0  0  0  0  0  0  0  0
    2.0682   -3.9454   -1.7868 C   0  0  0  0  0  0  0  0  0  0  0  0
    1.4952   -4.2060    5.0582 N   0  0  0  0  0  0  0  0  0  0  0  0
    2.7124   -3.7370   -2.9600 C   0  0  0  0  0  0  0  0  0  0  0  0
    0.7633    2.9568   -2.2099 N   0  0  0  0  0  0  0  0  0  0  0  0
    2.9740   -4.8402   -3.9132 C   0  0  0  0  0  0  0  0  0  0  0  0
    2.5652   -6.0951   -3.6164 C   0  0  0  0  0  0  0  0  0  0  0  0
    1.8824   -6.3405   -2.3676 C   0  0  0  0  0  0  0  0  0  0  0  0
    1.6508   -5.3373   -1.5173 C   0  0  0  0  0  0  0  0  0  0  0  0
    1.6811   -3.1512    0.8725 C   0  0  0  0  0  0  0  0  0  0  0  0
    1.1590   -2.3005    1.7803 C   0  0  0  0  0  0  0  0  0  0  0  0
    1.0857   -2.6407    3.2283 C   0  0  0  0  0  0  0  0  0  0  0  0
    1.5491   -3.8390    3.6740 C   0  0  0  0  0  0  0  0  0  0  0  0
    2.1207   -4.7805    2.6927 C   0  0  0  0  0  0  0  0  0  0  0  0
    2.1807   -4.4574    1.3932 C   0  0  0  0  0  0  0  0  0  0  0  0
    1.5060   -1.1913   -1.1856 C   0  0  0  0  0  0  0  0  0  0  0  0
    0.6816   -0.2708   -0.3284 C   0  0  0  0  0  0  0  0  0  0  0  0
    0.4533    1.0055   -0.6498 C   0  0  0  0  0  0  0  0  0  0  0  0
    1.0057    1.5834   -1.8805 C   0  0  0  0  0  0  0  0  0  0  0  0
    1.7480    0.7984   -2.6887 C   0  0  0  0  0  0  0  0  0  0  0  0
    2.0127   -0.6372   -2.3370 C   0  0  0  0  0  0  0  0  0  0  0  0
    2.1836   -5.3507    5.5723 C   0  0  0  0  0  0  0  0  0  0  0  0
    0.7365   -3.4201    5.9813 C   0  0  0  0  0  0  0  0  0  0  0  0
    0.8042    3.3930   -3.5760 C   0  0  0  0  0  0  0  0  0  0  0  0
    0.4672    3.9330   -1.1857 C   0  0  0  0  0  0  0  0  0  0  0  0
  1  2  1  0  0  0  0
  1 10  1  0  0  0  0
  1 16  1  0  0  0  0
  2  4  2  0  0  0  0
  2  9  1  0  0  0  0
  4  6  1  0  0  0  0
  6  7  2  0  0  0  0
  7  8  1  0  0  0  0
  8  9  2  0  0  0  0
 10 11  2  0  0  0  0
 10 15  1  0  0  0  0
 11 12  1  0  0  0  0
 12 13  2  0  0  0  0
 13  3  1  0  0  0  0
 13 14  1  0  0  0  0
 14 15  2  0  0  0  0
 16 17  2  0  0  0  0
 16 21  1  0  0  0  0
 17 18  1  0  0  0  0
 18 19  2  0  0  0  0
 19  5  1  0  0  0  0
 19 20  1  0  0  0  0
 20 21  2  0  0  0  0
 22  3  1  0  0  0  0
 23  3  1  0  0  0  0
 24  5  1  0  0  0  0
 25  5  1  0  0  0  0
M  END
>  <CHROM.1>
-150.01965876,-166.07614165,154.30858263,-168.81660402,-154.75888958,1.55432314
-2.17195998,-0.05388680,-1.23840389,1.34337024,-1.07230838

>  <Name>
1q8n_lig

>  <RI>
0

>  <Rbt.Current_Directory>
/home/itssahil/PROJECTS/Mol_Feturizer/New_Systems/rnas/1q8n

>  <Rbt.Executable>
rbdock ($Id: //depot/dev/client3/rdock/2013.1/src/exe/rbdock.cxx#4 $)

>  <Rbt.Library>
libRbt.so (2013.1, Build901 2013/11/27)

>  <Rbt.Parameter_File>
/export/apps/rDock/src/rDock_2013.1_src/data/scripts/dock_solv.prm

>  <Rbt.Receptor>
prm/blind_docking_40.prm

>  <SCORE>
-41.839

>  <SCORE.INTER>
-43.0984

>  <SCORE.INTER.CONST>
1

>  <SCORE.INTER.POLAR>
0

>  <SCORE.INTER.ROT>
5

>  <SCORE.INTER.SOLV>
9.13281

>  <SCORE.INTER.VDW>
-38.7098

>  <SCORE.INTER.norm>
-1.72393

>  <SCORE.INTRA>
1.25936

>  <SCORE.INTRA.DIHEDRAL>
2.80448

>  <SCORE.INTRA.DIHEDRAL.0>
2.1627

>  <SCORE.INTRA.POLAR>
0

>  <SCORE.INTRA.POLAR.0>
0

>  <SCORE.INTRA.REPUL>
0

>  <SCORE.INTRA.REPUL.0>
0

>  <SCORE.INTRA.SOLV>
0.0512627

>  <SCORE.INTRA.SOLV.lig_0>
-5.95779

>  <SCORE.INTRA.VDW>
-0.168506

>  <SCORE.INTRA.VDW.0>
3.81702

>  <SCORE.INTRA.norm>
0.0503746

>  <SCORE.RESTR>
0

>  <SCORE.RESTR.CAVITY>
0

>  <SCORE.RESTR.norm>
0

>  <SCORE.SYSTEM>
0

>  <SCORE.SYSTEM.CONST>
0

>  <SCORE.SYSTEM.DIHEDRAL>
0

>  <SCORE.SYSTEM.SOLV>
0

>  <SCORE.SYSTEM.norm>
0

>  <SCORE.heavy>
25

>  <SCORE.norm>
-1.67356

>  <RMSD>
6.571

$$$$
1q8n_lig
 OpenBabel11021811403D
libRbt.so/2013.1/901 2013/11/27
 25 27  0  0  0  0  0  0  0  0999 V2000
    1.6985   -2.8314   -0.7293 C   0  0  0  0  0  0  0  0  0  0  0  0
    1.9933   -3.9596   -1.8720 C   0  0  0  0  0  0  0  0  0  0  0  0
    0.5846    2.7385   -2.5062 N   0  0  0  0  0  0  0  0  0  0  0  0
    1.7903   -5.2855   -1.6832 C   0  0  0  0  0  0  0  0  0  0  0  0
    1.5427   -4.0149    5.1434 N   0  0  0  0  0  0  0  0  0  0  0  0
    2.0763   -6.2776   -2.7452 C   0  0  0  0  0  0  0  0  0  0  0  0
    2.5521   -5.8622   -3.9415 C   0  0  0  0  0  0  0  0  0  0  0  0
    2.7694   -4.4522   -4.1662 C   0  0  0  0  0  0  0  0  0  0  0  0
    2.5095   -3.5677   -3.2001 C   0  0  0  0  0  0  0  0  0  0  0  0
    1.3920   -1.3036   -1.2111 C   0  0  0  0  0  0  0  0  0  0  0  0
    1.3004   -0.2944   -0.3203 C   0  0  0  0  0  0  0  0  0  0  0  0
    1.0213    1.1063   -0.7422 C   0  0  0  0  0  0  0  0  0  0  0  0
    0.8526    1.4038   -2.0584 C   0  0  0  0  0  0  0  0  0  0  0  0
    0.9521    0.3111   -3.0443 C   0  0  0  0  0  0  0  0  0  0  0  0
    1.2021   -0.9444   -2.6471 C   0  0  0  0  0  0  0  0  0  0  0  0
    1.7060   -3.2034    0.8864 C   0  0  0  0  0  0  0  0  0  0  0  0
    0.8978   -2.3760    1.8476 C   0  0  0  0  0  0  0  0  0  0  0  0
    0.8532   -2.6283    3.1586 C   0  0  0  0  0  0  0  0  0  0  0  0
    1.6066   -3.7470    3.7371 C   0  0  0  0  0  0  0  0  0  0  0  0
    2.3531   -4.5175    2.9189 C   0  0  0  0  0  0  0  0  0  0  0  0
    2.4098   -4.2444    1.4434 C   0  0  0  0  0  0  0  0  0  0  0  0
    0.5565    3.8538   -1.6096 C   0  0  0  0  0  0  0  0  0  0  0  0
    0.3341    2.9957   -3.8905 C   0  0  0  0  0  0  0  0  0  0  0  0
    2.0406   -5.2536    5.6690 C   0  0  0  0  0  0  0  0  0  0  0  0
    0.9855   -3.0518    6.0661 C   0  0  0  0  0  0  0  0  0  0  0  0
  1  2  1  0  0  0  0
  1 10  1  0  0  0  0
  1 16  1  0  0  0  0
  2  4  2  0  0  0  0
  2  9  1  0  0  0  0
  4  6  1  0  0  0  0
  6  7  2  0  0  0  0
  7  8  1  0  0  0  0
  8  9  2  0  0  0  0
 10 11  2  0  0  0  0
 10 15  1  0  0  0  0
 11 12  1  0  0  0  0
 12 13  2  0  0  0  0
 13  3  1  0  0  0  0
 13 14  1  0  0  0  0
 14 15  2  0  0  0  0
 16 17  2  0  0  0  0
 16 21  1  0  0  0  0
 17 18  1  0  0  0  0
 18 19  2  0  0  0  0
 19  5  1  0  0  0  0
 19 20  1  0  0  0  0
 20 21  2  0  0  0  0
 22  3  1  0  0  0  0
 23  3  1  0  0  0  0
 24  5  1  0  0  0  0
 25  5  1  0  0  0  0
M  END
>  <CHROM.1>
-155.51171271,-171.91678074,-153.97177883,3.81295117,166.91251786,1.50344843
-2.16244469,-0.16904046,-1.95307178,-1.33938082,1.87463010

>  <Name>
1q8n_lig

>  <RI>
0

>  <Rbt.Current_Directory>
/home/itssahil/PROJECTS/Mol_Feturizer/New_Systems/rnas/1q8n

>  <Rbt.Executable>
rbdock ($Id: //depot/dev/client3/rdock/2013.1/src/exe/rbdock.cxx#4 $)

>  <Rbt.Library>
libRbt.so (2013.1, Build901 2013/11/27)

>  <Rbt.Parameter_File>
/export/apps/rDock/src/rDock_2013.1_src/data/scripts/dock_solv.prm

>  <Rbt.Receptor>
prm/blind_docking_60.prm

>  <SCORE>
-42.6911

>  <SCORE.INTER>
-43.7415

>  <SCORE.INTER.CONST>
1

>  <SCORE.INTER.POLAR>
0

>  <SCORE.INTER.ROT>
5

>  <SCORE.INTER.SOLV>
8.8056

>  <SCORE.INTER.VDW>
-39.0295

>  <SCORE.INTER.norm>
-1.74966

>  <SCORE.INTRA>
1.02454

>  <SCORE.INTRA.DIHEDRAL>
0.713278

>  <SCORE.INTRA.DIHEDRAL.0>
2.1627

>  <SCORE.INTRA.POLAR>
0

>  <SCORE.INTRA.POLAR.0>
0

>  <SCORE.INTRA.REPUL>
0

>  <SCORE.INTRA.REPUL.0>
0

>  <SCORE.INTRA.SOLV>
0.0544455

>  <SCORE.INTRA.SOLV.lig_0>
-5.95779

>  <SCORE.INTRA.VDW>
0.640677

>  <SCORE.INTRA.VDW.0>
3.81702

>  <SCORE.INTRA.norm>
0.0409816

>  <SCORE.RESTR>
0.0258668

>  <SCORE.RESTR.CAVITY>
0.0258668

>  <SCORE.RESTR.norm>
0.00103467

>  <SCORE.SYSTEM>
0

>  <SCORE.SYSTEM.CONST>
0

>  <SCORE.SYSTEM.DIHEDRAL>
0

>  <SCORE.SYSTEM.SOLV>
0

>  <SCORE.SYSTEM.norm>
0

>  <SCORE.heavy>
25

>  <SCORE.norm>
-1.70764

>  <RMSD>
6.572

$$$$
1q8n_lig
 OpenBabel11021811413D
libRbt.so/2013.1/901 2013/11/27
 25 27  0  0  0  0  0  0  0  0999 V2000
    2.0526   -3.6282   -2.2411 C   0  0  0  0  0  0  0  0  0  0  0  0
    1.6852   -4.6327   -1.0076 C   0  0  0  0  0  0  0  0  0  0  0  0
    0.3499    2.0627   -1.8712 N   0  0  0  0  0  0  0  0  0  0  0  0
    1.4546   -5.9581   -1.1663 C   0  0  0  0  0  0  0  0  0  0  0  0
    5.2482   -5.4184   -6.9841 N   0  0  0  0  0  0  0  0  0  0  0  0
    1.1182   -6.8343   -0.0205 C   0  0  0  0  0  0  0  0  0  0  0  0
    1.0370   -6.3104    1.2241 C   0  0  0  0  0  0  0  0  0  0  0  0
    1.2858   -4.9008    1.4166 C   0  0  0  0  0  0  0  0  0  0  0  0
    1.5864   -4.1209    0.3752 C   0  0  0  0  0  0  0  0  0  0  0  0
    1.5818   -2.0701   -2.1365 C   0  0  0  0  0  0  0  0  0  0  0  0
    0.6976   -1.6680   -1.2001 C   0  0  0  0  0  0  0  0  0  0  0  0
    0.2565   -0.2498   -1.0900 C   0  0  0  0  0  0  0  0  0  0  0  0
    0.7467    0.6876   -1.9446 C   0  0  0  0  0  0  0  0  0  0  0  0
    1.7160    0.2633   -2.9724 C   0  0  0  0  0  0  0  0  0  0  0  0
    2.1008   -1.0178   -3.0587 C   0  0  0  0  0  0  0  0  0  0  0  0
    2.8809   -4.1542   -3.5774 C   0  0  0  0  0  0  0  0  0  0  0  0
    4.2667   -3.6370   -3.8493 C   0  0  0  0  0  0  0  0  0  0  0  0
    4.9907   -4.0273   -4.9018 C   0  0  0  0  0  0  0  0  0  0  0  0
    4.4584   -4.9987   -5.8645 C   0  0  0  0  0  0  0  0  0  0  0  0
    3.2167   -5.4897   -5.6704 C   0  0  0  0  0  0  0  0  0  0  0  0
    2.3942   -5.0594   -4.4901 C   0  0  0  0  0  0  0  0  0  0  0  0
   -0.3584    2.5942   -0.7467 C   0  0  0  0  0  0  0  0  0  0  0  0
    0.6591    2.9584   -2.9423 C   0  0  0  0  0  0  0  0  0  0  0  0
    6.6710   -5.2341   -6.9777 C   0  0  0  0  0  0  0  0  0  0  0  0
    4.6412   -6.0397   -8.1396 C   0  0  0  0  0  0  0  0  0  0  0  0
  1  2  1  0  0  0  0
  1 10  1  0  0  0  0
  1 16  1  0  0  0  0
  2  4  2  0  0  0  0
  2  9  1  0  0  0  0
  4  6  1  0  0  0  0
  6  7  2  0  0  0  0
  7  8  1  0  0  0  0
  8  9  2  0  0  0  0
 10 11  2  0  0  0  0
 10 15  1  0  0  0  0
 11 12  1  0  0  0  0
 12 13  2  0  0  0  0
 13  3  1  0  0  0  0
 13 14  1  0  0  0  0
 14 15  2  0  0  0  0
 16 17  2  0  0  0  0
 16 21  1  0  0  0  0
 17 18  1  0  0  0  0
 18 19  2  0  0  0  0
 19  5  1  0  0  0  0
 19 20  1  0  0  0  0
 20 21  2  0  0  0  0
 22  3  1  0  0  0  0
 23  3  1  0  0  0  0
 24  5  1  0  0  0  0
 25  5  1  0  0  0  0
M  END
>  <CHROM.1>
149.30232023,-12.71212598,-113.48094134,13.17544147,18.94045303,2.28812193
-3.02747596,-2.84809489,2.72073227,1.02158637,-0.42695784

>  <Name>
1q8n_lig

>  <RI>
0

>  <Rbt.Current_Directory>
/home/itssahil/PROJECTS/Mol_Feturizer/New_Systems/rnas/1q8n

>  <Rbt.Executable>
rbdock ($Id: //depot/dev/client3/rdock/2013.1/src/exe/rbdock.cxx#4 $)

>  <Rbt.Library>
libRbt.so (2013.1, Build901 2013/11/27)

>  <Rbt.Parameter_File>
/export/apps/rDock/src/rDock_2013.1_src/data/scripts/dock_solv.prm

>  <Rbt.Receptor>
prm/pocket_docking_6.prm

>  <SCORE>
-34.6073

>  <SCORE.INTER>
-35.2625

>  <SCORE.INTER.CONST>
1

>  <SCORE.INTER.POLAR>
0

>  <SCORE.INTER.ROT>
5

>  <SCORE.INTER.SOLV>
10.2763

>  <SCORE.INTER.VDW>
-33.8671

>  <SCORE.INTER.norm>
-1.4105

>  <SCORE.INTRA>
0.507441

>  <SCORE.INTRA.DIHEDRAL>
2.01017

>  <SCORE.INTRA.DIHEDRAL.0>
2.1627

>  <SCORE.INTRA.POLAR>
0

>  <SCORE.INTRA.POLAR.0>
0

>  <SCORE.INTRA.REPUL>
0

>  <SCORE.INTRA.REPUL.0>
0

>  <SCORE.INTRA.SOLV>
0.0152537

>  <SCORE.INTRA.SOLV.lig_0>
-5.95779

>  <SCORE.INTRA.VDW>
-0.505273

>  <SCORE.INTRA.VDW.0>
3.81702

>  <SCORE.INTRA.norm>
0.0202976

>  <SCORE.RESTR>
0.147857

>  <SCORE.RESTR.CAVITY>
0.147857

>  <SCORE.RESTR.norm>
0.00591429

>  <SCORE.SYSTEM>
0

>  <SCORE.SYSTEM.CONST>
0

>  <SCORE.SYSTEM.DIHEDRAL>
0

>  <SCORE.SYSTEM.SOLV>
0

>  <SCORE.SYSTEM.norm>
0

>  <SCORE.heavy>
25

>  <SCORE.norm>
-1.38429

>  <RMSD>
6.572

$$$$
1q8n_lig
 OpenBabel11021811403D
libRbt.so/2013.1/901 2013/11/27
 25 27  0  0  0  0  0  0  0  0999 V2000
    1.8324   -2.6565   -0.6523 C   0  0  0  0  0  0  0  0  0  0  0  0
    1.9886   -3.8477   -1.7579 C   0  0  0  0  0  0  0  0  0  0  0  0
    2.3313   -4.0479    5.1128 N   0  0  0  0  0  0  0  0  0  0  0  0
    2.3867   -3.6346   -3.0350 C   0  0  0  0  0  0  0  0  0  0  0  0
    0.7487    2.9428   -2.4927 N   0  0  0  0  0  0  0  0  0  0  0  0
    2.5100   -4.7436   -4.0091 C   0  0  0  0  0  0  0  0  0  0  0  0
    2.2220   -6.0087   -3.6263 C   0  0  0  0  0  0  0  0  0  0  0  0
    1.8022   -6.2589   -2.2672 C   0  0  0  0  0  0  0  0  0  0  0  0
    1.6930   -5.2504   -1.3988 C   0  0  0  0  0  0  0  0  0  0  0  0
    1.9705   -3.0429    0.9262 C   0  0  0  0  0  0  0  0  0  0  0  0
    2.6021   -4.1689    1.3180 C   0  0  0  0  0  0  0  0  0  0  0  0
    2.7376   -4.5375    2.7545 C   0  0  0  0  0  0  0  0  0  0  0  0
    2.2207   -3.7308    3.7196 C   0  0  0  0  0  0  0  0  0  0  0  0
    1.5293   -2.4950    3.3066 C   0  0  0  0  0  0  0  0  0  0  0  0
    1.4147   -2.1793    2.0090 C   0  0  0  0  0  0  0  0  0  0  0  0
    1.5392   -1.0865   -1.0971 C   0  0  0  0  0  0  0  0  0  0  0  0
    1.4891   -0.7195   -2.5546 C   0  0  0  0  0  0  0  0  0  0  0  0
    1.2482    0.5239   -2.9794 C   0  0  0  0  0  0  0  0  0  0  0  0
    1.0169    1.6149   -2.0255 C   0  0  0  0  0  0  0  0  0  0  0  0
    1.0571    1.3406   -0.7051 C   0  0  0  0  0  0  0  0  0  0  0  0
    1.3255   -0.0535   -0.2158 C   0  0  0  0  0  0  0  0  0  0  0  0
    2.4482   -5.3948    5.5827 C   0  0  0  0  0  0  0  0  0  0  0  0
    2.3286   -3.0039    6.0901 C   0  0  0  0  0  0  0  0  0  0  0  0
    0.6190    4.0267   -1.5618 C   0  0  0  0  0  0  0  0  0  0  0  0
    0.6081    3.2279   -3.9028 C   0  0  0  0  0  0  0  0  0  0  0  0
  1  2  1  0  0  0  0
  1 10  1  0  0  0  0
  1 16  1  0  0  0  0
  2  4  2  0  0  0  0
  2  9  1  0  0  0  0
  4  6  1  0  0  0  0
  6  7  2  0  0  0  0
  7  8  1  0  0  0  0
  8  9  2  0  0  0  0
 10 11  2  0  0  0  0
 10 15  1  0  0  0  0
 11 12  1  0  0  0  0
 12 13  2  0  0  0  0
 13  3  1  0  0  0  0
 13 14  1  0  0  0  0
 14 15  2  0  0  0  0
 16 17  2  0  0  0  0
 16 21  1  0  0  0  0
 17 18  1  0  0  0  0
 18 19  2  0  0  0  0
 19  5  1  0  0  0  0
 19 20  1  0  0  0  0
 20 21  2  0  0  0  0
 22  3  1  0  0  0  0
 23  3  1  0  0  0  0
 24  5  1  0  0  0  0
 25  5  1  0  0  0  0
M  END
>  <CHROM.1>
-154.58079825,20.94860736,-3.48222559,-27.08637387,-175.46611206,1.73953807
-2.07467151,-0.08995952,-0.59575316,1.39271355,-1.78004307

>  <Name>
1q8n_lig

>  <RI>
0

>  <Rbt.Current_Directory>
/home/itssahil/PROJECTS/Mol_Feturizer/New_Systems/rnas/1q8n

>  <Rbt.Executable>
rbdock ($Id: //depot/dev/client3/rdock/2013.1/src/exe/rbdock.cxx#4 $)

>  <Rbt.Library>
libRbt.so (2013.1, Build901 2013/11/27)

>  <Rbt.Parameter_File>
/export/apps/rDock/src/rDock_2013.1_src/data/scripts/dock_solv.prm

>  <Rbt.Receptor>
prm/blind_docking_100.prm

>  <SCORE>
-38.4706

>  <SCORE.INTER>
-39.9324

>  <SCORE.INTER.CONST>
1

>  <SCORE.INTER.POLAR>
0

>  <SCORE.INTER.ROT>
5

>  <SCORE.INTER.SOLV>
9.30063

>  <SCORE.INTER.VDW>
-36.6551

>  <SCORE.INTER.norm>
-1.5973

>  <SCORE.INTRA>
1.30416

>  <SCORE.INTRA.DIHEDRAL>
2.72969

>  <SCORE.INTRA.DIHEDRAL.0>
2.1627

>  <SCORE.INTRA.POLAR>
0

>  <SCORE.INTRA.POLAR.0>
0

>  <SCORE.INTRA.REPUL>
0

>  <SCORE.INTRA.REPUL.0>
0

>  <SCORE.INTRA.SOLV>
0.0585766

>  <SCORE.INTRA.SOLV.lig_0>
-5.95779

>  <SCORE.INTRA.VDW>
-0.0899792

>  <SCORE.INTRA.VDW.0>
3.81702

>  <SCORE.INTRA.norm>
0.0521662

>  <SCORE.RESTR>
0.157625

>  <SCORE.RESTR.CAVITY>
0.157625

>  <SCORE.RESTR.norm>
0.00630501

>  <SCORE.SYSTEM>
0

>  <SCORE.SYSTEM.CONST>
0

>  <SCORE.SYSTEM.DIHEDRAL>
0

>  <SCORE.SYSTEM.SOLV>
0

>  <SCORE.SYSTEM.norm>
0

>  <SCORE.heavy>
25

>  <SCORE.norm>
-1.53882

>  <RMSD>
6.577

$$$$
1q8n_lig
 OpenBabel11021811413D
libRbt.so/2013.1/901 2013/11/27
 25 27  0  0  0  0  0  0  0  0999 V2000
    1.7436   -2.6584   -0.4486 C   0  0  0  0  0  0  0  0  0  0  0  0
    2.0242   -3.8106   -1.5707 C   0  0  0  0  0  0  0  0  0  0  0  0
    1.6775   -4.2758    5.2787 N   0  0  0  0  0  0  0  0  0  0  0  0
    2.6104   -3.5625   -2.7664 C   0  0  0  0  0  0  0  0  0  0  0  0
    0.8317    2.9982   -2.2048 N   0  0  0  0  0  0  0  0  0  0  0  0
    2.8417   -4.6365   -3.7598 C   0  0  0  0  0  0  0  0  0  0  0  0
    2.4638   -5.9045   -3.4780 C   0  0  0  0  0  0  0  0  0  0  0  0
    1.8431   -6.1922   -2.2060 C   0  0  0  0  0  0  0  0  0  0  0  0
    1.6382   -5.2149   -1.3195 C   0  0  0  0  0  0  0  0  0  0  0  0
    1.7241   -3.0966    1.1223 C   0  0  0  0  0  0  0  0  0  0  0  0
    1.1409   -2.3191    2.0581 C   0  0  0  0  0  0  0  0  0  0  0  0
    1.1136   -2.7032    3.4967 C   0  0  0  0  0  0  0  0  0  0  0  0
    1.6838   -3.8684    3.9047 C   0  0  0  0  0  0  0  0  0  0  0  0
    2.3234   -4.7301    2.8926 C   0  0  0  0  0  0  0  0  0  0  0  0
    2.3405   -4.3682    1.6021 C   0  0  0  0  0  0  0  0  0  0  0  0
    1.4808   -1.0765   -0.8694 C   0  0  0  0  0  0  0  0  0  0  0  0
    1.7689   -0.6186   -2.2726 C   0  0  0  0  0  0  0  0  0  0  0  0
    1.5701    0.6385   -2.6782 C   0  0  0  0  0  0  0  0  0  0  0  0
    1.0514    1.6553   -1.7558 C   0  0  0  0  0  0  0  0  0  0  0  0
    0.7820    1.2982   -0.4828 C   0  0  0  0  0  0  0  0  0  0  0  0
    1.0001   -0.1122   -0.0159 C   0  0  0  0  0  0  0  0  0  0  0  0
    2.4923   -5.3492    5.7608 C   0  0  0  0  0  0  0  0  0  0  0  0
    0.8396   -3.6049    6.2236 C   0  0  0  0  0  0  0  0  0  0  0  0
    0.5669    4.0447   -1.2597 C   0  0  0  0  0  0  0  0  0  0  0  0
    0.8761    3.3363   -3.6095 C   0  0  0  0  0  0  0  0  0  0  0  0
  1  2  1  0  0  0  0
  1 10  1  0  0  0  0
  1 16  1  0  0  0  0
  2  4  2  0  0  0  0
  2  9  1  0  0  0  0
  4  6  1  0  0  0  0
  6  7  2  0  0  0  0
  7  8  1  0  0  0  0
  8  9  2  0  0  0  0
 10 11  2  0  0  0  0
 10 15  1  0  0  0  0
 11 12  1  0  0  0  0
 12 13  2  0  0  0  0
 13  3  1  0  0  0  0
 13 14  1  0  0  0  0
 14 15  2  0  0  0  0
 16 17  2  0  0  0  0
 16 21  1  0  0  0  0
 17 18  1  0  0  0  0
 18 19  2  0  0  0  0
 19  5  1  0  0  0  0
 19 20  1  0  0  0  0
 20 21  2  0  0  0  0
 22  3  1  0  0  0  0
 23  3  1  0  0  0  0
 24  5  1  0  0  0  0
 25  5  1  0  0  0  0
M  END
>  <CHROM.1>
-151.11170004,-160.99978634,-12.34514781,-167.27591983,-168.32839258,1.60501491
-2.11480349,0.11475780,-1.17269457,1.36495426,-1.17166478

>  <Name>
1q8n_lig

>  <RI>
0

>  <Rbt.Current_Directory>
/home/itssahil/PROJECTS/Mol_Feturizer/New_Systems/rnas/1q8n

>  <Rbt.Executable>
rbdock ($Id: //depot/dev/client3/rdock/2013.1/src/exe/rbdock.cxx#4 $)

>  <Rbt.Library>
libRbt.so (2013.1, Build901 2013/11/27)

>  <Rbt.Parameter_File>
/export/apps/rDock/src/rDock_2013.1_src/data/scripts/dock_solv.prm

>  <Rbt.Receptor>
prm/pocket_docking_8.prm

>  <SCORE>
-42.7736

>  <SCORE.INTER>
-43.763

>  <SCORE.INTER.CONST>
1

>  <SCORE.INTER.POLAR>
0

>  <SCORE.INTER.ROT>
5

>  <SCORE.INTER.SOLV>
9.12653

>  <SCORE.INTER.VDW>
-39.1509

>  <SCORE.INTER.norm>
-1.75052

>  <SCORE.INTRA>
0.989378

>  <SCORE.INTRA.DIHEDRAL>
1.14363

>  <SCORE.INTRA.DIHEDRAL.0>
2.1627

>  <SCORE.INTRA.POLAR>
0

>  <SCORE.INTRA.POLAR.0>
0

>  <SCORE.INTRA.REPUL>
0

>  <SCORE.INTRA.REPUL.0>
0

>  <SCORE.INTRA.SOLV>
0.0557813

>  <SCORE.INTRA.SOLV.lig_0>
-5.95779

>  <SCORE.INTRA.VDW>
0.389673

>  <SCORE.INTRA.VDW.0>
3.81702

>  <SCORE.INTRA.norm>
0.0395751

>  <SCORE.RESTR>
0

>  <SCORE.RESTR.CAVITY>
0

>  <SCORE.RESTR.norm>
0

>  <SCORE.SYSTEM>
0

>  <SCORE.SYSTEM.CONST>
0

>  <SCORE.SYSTEM.DIHEDRAL>
0

>  <SCORE.SYSTEM.SOLV>
0

>  <SCORE.SYSTEM.norm>
0

>  <SCORE.heavy>
25

>  <SCORE.norm>
-1.71095

>  <RMSD>
6.584

$$$$
1q8n_lig
 OpenBabel11021811403D
libRbt.so/2013.1/901 2013/11/27
 25 27  0  0  0  0  0  0  0  0999 V2000
    1.7510   -2.7548   -0.8041 C   0  0  0  0  0  0  0  0  0  0  0  0
    1.9712   -3.9494   -1.8949 C   0  0  0  0  0  0  0  0  0  0  0  0
    0.5255    2.7188   -2.7941 N   0  0  0  0  0  0  0  0  0  0  0  0
    1.7747   -5.2606   -1.6173 C   0  0  0  0  0  0  0  0  0  0  0  0
    2.2985   -3.9442    5.0438 N   0  0  0  0  0  0  0  0  0  0  0  0
    1.9916   -6.3146   -2.6351 C   0  0  0  0  0  0  0  0  0  0  0  0
    2.3954   -5.9728   -3.8801 C   0  0  0  0  0  0  0  0  0  0  0  0
    2.6043   -4.5799   -4.1993 C   0  0  0  0  0  0  0  0  0  0  0  0
    2.4072   -3.6390   -3.2724 C   0  0  0  0  0  0  0  0  0  0  0  0
    1.4161   -1.2564   -1.3545 C   0  0  0  0  0  0  0  0  0  0  0  0
    1.1722   -1.0300   -2.6621 C   0  0  0  0  0  0  0  0  0  0  0  0
    0.8648    0.3312   -3.1823 C   0  0  0  0  0  0  0  0  0  0  0  0
    0.8196    1.3936   -2.3346 C   0  0  0  0  0  0  0  0  0  0  0  0
    1.0820    1.1611   -0.9018 C   0  0  0  0  0  0  0  0  0  0  0  0
    1.3590   -0.0703   -0.4507 C   0  0  0  0  0  0  0  0  0  0  0  0
    1.8611   -3.0314    0.8269 C   0  0  0  0  0  0  0  0  0  0  0  0
    2.5241   -4.2842    1.3293 C   0  0  0  0  0  0  0  0  0  0  0  0
    2.6538   -4.5622    2.6294 C   0  0  0  0  0  0  0  0  0  0  0  0
    2.1443   -3.6409    3.6519 C   0  0  0  0  0  0  0  0  0  0  0  0
    1.5350   -2.5046    3.2544 C   0  0  0  0  0  0  0  0  0  0  0  0
    1.3848   -2.1807    1.7958 C   0  0  0  0  0  0  0  0  0  0  0  0
    0.1313    2.9896   -4.1431 C   0  0  0  0  0  0  0  0  0  0  0  0
    0.6194    3.8283   -1.8967 C   0  0  0  0  0  0  0  0  0  0  0  0
    2.3605   -2.8886    6.0135 C   0  0  0  0  0  0  0  0  0  0  0  0
    2.3894   -5.3099    5.5085 C   0  0  0  0  0  0  0  0  0  0  0  0
  1  2  1  0  0  0  0
  1 10  1  0  0  0  0
  1 16  1  0  0  0  0
  2  4  2  0  0  0  0
  2  9  1  0  0  0  0
  4  6  1  0  0  0  0
  6  7  2  0  0  0  0
  7  8  1  0  0  0  0
  8  9  2  0  0  0  0
 10 11  2  0  0  0  0
 10 15  1  0  0  0  0
 11 12  1  0  0  0  0
 12 13  2  0  0  0  0
 13  3  1  0  0  0  0
 13 14  1  0  0  0  0
 14 15  2  0  0  0  0
 16 17  2  0  0  0  0
 16 21  1  0  0  0  0
 17 18  1  0  0  0  0
 18 19  2  0  0  0  0
 19  5  1  0  0  0  0
 19 20  1  0  0  0  0
 20 21  2  0  0  0  0
 22  3  1  0  0  0  0
 23  3  1  0  0  0  0
 24  5  1  0  0  0  0
 25  5  1  0  0  0  0
M  END
>  <CHROM.1>
-155.27160962,7.58511444,16.56049596,6.34704354,152.81198389,1.67298120,-2.13704568
-0.27041442,-2.45370339,-1.35765686,1.38637192

>  <Name>
1q8n_lig

>  <RI>
0

>  <Rbt.Current_Directory>
/home/itssahil/PROJECTS/Mol_Feturizer/New_Systems/rnas/1q8n

>  <Rbt.Executable>
rbdock ($Id: //depot/dev/client3/rdock/2013.1/src/exe/rbdock.cxx#4 $)

>  <Rbt.Library>
libRbt.so (2013.1, Build901 2013/11/27)

>  <Rbt.Parameter_File>
/export/apps/rDock/src/rDock_2013.1_src/data/scripts/dock_solv.prm

>  <Rbt.Receptor>
prm/blind_docking_100.prm

>  <SCORE>
-39.1385

>  <SCORE.INTER>
-40.6336

>  <SCORE.INTER.CONST>
1

>  <SCORE.INTER.POLAR>
0

>  <SCORE.INTER.ROT>
5

>  <SCORE.INTER.SOLV>
9.1728

>  <SCORE.INTER.VDW>
-37.08

>  <SCORE.INTER.norm>
-1.62534

>  <SCORE.INTRA>
1.42899

>  <SCORE.INTRA.DIHEDRAL>
2.82644

>  <SCORE.INTRA.DIHEDRAL.0>
2.1627

>  <SCORE.INTRA.POLAR>
0

>  <SCORE.INTRA.POLAR.0>
0

>  <SCORE.INTRA.REPUL>
0

>  <SCORE.INTRA.REPUL.0>
0

>  <SCORE.INTRA.SOLV>
0.0602817

>  <SCORE.INTRA.SOLV.lig_0>
-5.95779

>  <SCORE.INTRA.VDW>
-0.0143654

>  <SCORE.INTRA.VDW.0>
3.81702

>  <SCORE.INTRA.norm>
0.0571598

>  <SCORE.RESTR>
0.0660616

>  <SCORE.RESTR.CAVITY>
0.0660616

>  <SCORE.RESTR.norm>
0.00264247

>  <SCORE.SYSTEM>
0

>  <SCORE.SYSTEM.CONST>
0

>  <SCORE.SYSTEM.DIHEDRAL>
0

>  <SCORE.SYSTEM.SOLV>
0

>  <SCORE.SYSTEM.norm>
0

>  <SCORE.heavy>
25

>  <SCORE.norm>
-1.56554

>  <RMSD>
6.585

$$$$
1q8n_lig
 OpenBabel11021811403D
libRbt.so/2013.1/901 2013/11/27
 25 27  0  0  0  0  0  0  0  0999 V2000
    1.3960   -2.1751   -0.3889 C   0  0  0  0  0  0  0  0  0  0  0  0
    1.8609   -3.3687   -1.4010 C   0  0  0  0  0  0  0  0  0  0  0  0
    0.8331    3.3353   -2.5661 N   0  0  0  0  0  0  0  0  0  0  0  0
    2.4891   -3.1464   -2.5803 C   0  0  0  0  0  0  0  0  0  0  0  0
    0.3506   -3.4415    5.3745 N   0  0  0  0  0  0  0  0  0  0  0  0
    2.8893   -4.2586   -3.4730 C   0  0  0  0  0  0  0  0  0  0  0  0
    2.6280   -5.5360   -3.1127 C   0  0  0  0  0  0  0  0  0  0  0  0
    1.9650   -5.7957   -1.8562 C   0  0  0  0  0  0  0  0  0  0  0  0
    1.6074   -4.7844   -1.0609 C   0  0  0  0  0  0  0  0  0  0  0  0
    1.2453   -0.6662   -0.9894 C   0  0  0  0  0  0  0  0  0  0  0  0
    1.6842   -0.3592   -2.2278 C   0  0  0  0  0  0  0  0  0  0  0  0
    1.5549    1.0128   -2.7923 C   0  0  0  0  0  0  0  0  0  0  0  0
    0.9786    2.0028   -2.0594 C   0  0  0  0  0  0  0  0  0  0  0  0
    0.4919    1.6817   -0.7044 C   0  0  0  0  0  0  0  0  0  0  0  0
    0.6179    0.4418   -0.2110 C   0  0  0  0  0  0  0  0  0  0  0  0
    1.0806   -2.4631    1.2131 C   0  0  0  0  0  0  0  0  0  0  0  0
    1.2326   -3.8531    1.7666 C   0  0  0  0  0  0  0  0  0  0  0  0
    1.0037   -4.1499    3.0488 C   0  0  0  0  0  0  0  0  0  0  0  0
    0.5830   -3.1137    3.9990 C   0  0  0  0  0  0  0  0  0  0  0  0
    0.4255   -1.8503    3.5524 C   0  0  0  0  0  0  0  0  0  0  0  0
    0.6815   -1.5045    2.1137 C   0  0  0  0  0  0  0  0  0  0  0  0
    0.8512    3.6259   -3.9674 C   0  0  0  0  0  0  0  0  0  0  0  0
    0.6612    4.4324   -1.6649 C   0  0  0  0  0  0  0  0  0  0  0  0
   -0.6402   -2.7321    6.1317 C   0  0  0  0  0  0  0  0  0  0  0  0
    1.0963   -4.4908    6.0320 C   0  0  0  0  0  0  0  0  0  0  0  0
  1  2  1  0  0  0  0
  1 10  1  0  0  0  0
  1 16  1  0  0  0  0
  2  4  2  0  0  0  0
  2  9  1  0  0  0  0
  4  6  1  0  0  0  0
  6  7  2  0  0  0  0
  7  8  1  0  0  0  0
  8  9  2  0  0  0  0
 10 11  2  0  0  0  0
 10 15  1  0  0  0  0
 11 12  1  0  0  0  0
 12 13  2  0  0  0  0
 13  3  1  0  0  0  0
 13 14  1  0  0  0  0
 14 15  2  0  0  0  0
 16 17  2  0  0  0  0
 16 21  1  0  0  0  0
 17 18  1  0  0  0  0
 18 19  2  0  0  0  0
 19  5  1  0  0  0  0
 19 20  1  0  0  0  0
 20 21  2  0  0  0  0
 22  3  1  0  0  0  0
 23  3  1  0  0  0  0
 24  5  1  0  0  0  0
 25  5  1  0  0  0  0
M  END
>  <CHROM.1>
19.65702876,-10.04313972,0.50182531,21.44369624,-148.27913306,1.16281545
-1.59337726,0.13164681,-1.40142265,-1.27402428,2.44397167

>  <Name>
1q8n_lig

>  <RI>
0

>  <Rbt.Current_Directory>
/home/itssahil/PROJECTS/Mol_Feturizer/New_Systems/rnas/1q8n

>  <Rbt.Executable>
rbdock ($Id: //depot/dev/client3/rdock/2013.1/src/exe/rbdock.cxx#4 $)

>  <Rbt.Library>
libRbt.so (2013.1, Build901 2013/11/27)

>  <Rbt.Parameter_File>
/export/apps/rDock/src/rDock_2013.1_src/data/scripts/dock_solv.prm

>  <Rbt.Receptor>
prm/blind_docking_20.prm

>  <SCORE>
-38.4715

>  <SCORE.INTER>
-40.8427

>  <SCORE.INTER.CONST>
1

>  <SCORE.INTER.POLAR>
0

>  <SCORE.INTER.ROT>
5

>  <SCORE.INTER.SOLV>
8.24166

>  <SCORE.INTER.VDW>
-36.909

>  <SCORE.INTER.norm>
-1.63371

>  <SCORE.INTRA>
2.347

>  <SCORE.INTRA.DIHEDRAL>
5.24586

>  <SCORE.INTRA.DIHEDRAL.0>
2.1627

>  <SCORE.INTRA.POLAR>
0

>  <SCORE.INTRA.POLAR.0>
0

>  <SCORE.INTRA.REPUL>
0

>  <SCORE.INTRA.REPUL.0>
0

>  <SCORE.INTRA.SOLV>
0.0701751

>  <SCORE.INTRA.SOLV.lig_0>
-5.95779

>  <SCORE.INTRA.VDW>
-0.311017

>  <SCORE.INTRA.VDW.0>
3.81702

>  <SCORE.INTRA.norm>
0.0938801

>  <SCORE.RESTR>
0.0242054

>  <SCORE.RESTR.CAVITY>
0.0242054

>  <SCORE.RESTR.norm>
0.000968215

>  <SCORE.SYSTEM>
0

>  <SCORE.SYSTEM.CONST>
0

>  <SCORE.SYSTEM.DIHEDRAL>
0

>  <SCORE.SYSTEM.SOLV>
0

>  <SCORE.SYSTEM.norm>
0

>  <SCORE.heavy>
25

>  <SCORE.norm>
-1.53886

>  <RMSD>
6.587

$$$$
1q8n_lig
 OpenBabel11021811403D
libRbt.so/2013.1/901 2013/11/27
 25 27  0  0  0  0  0  0  0  0999 V2000
    1.7985   -2.9971   -1.0135 C   0  0  0  0  0  0  0  0  0  0  0  0
    2.2681   -4.0767   -2.1446 C   0  0  0  0  0  0  0  0  0  0  0  0
    0.3753    2.5018   -2.7908 N   0  0  0  0  0  0  0  0  0  0  0  0
    1.9164   -5.3846   -2.1212 C   0  0  0  0  0  0  0  0  0  0  0  0
    1.3621   -4.2460    4.8314 N   0  0  0  0  0  0  0  0  0  0  0  0
    2.3692   -6.3332   -3.1648 C   0  0  0  0  0  0  0  0  0  0  0  0
    3.1545   -5.8949   -4.1754 C   0  0  0  0  0  0  0  0  0  0  0  0
    3.5357   -4.5027   -4.2231 C   0  0  0  0  0  0  0  0  0  0  0  0
    3.1226   -3.6577   -3.2752 C   0  0  0  0  0  0  0  0  0  0  0  0
    1.4035   -1.4907   -1.4984 C   0  0  0  0  0  0  0  0  0  0  0  0
    0.3230   -0.8559   -0.9986 C   0  0  0  0  0  0  0  0  0  0  0  0
   -0.0526    0.5192   -1.4296 C   0  0  0  0  0  0  0  0  0  0  0  0
    0.7008    1.1774   -2.3508 C   0  0  0  0  0  0  0  0  0  0  0  0
    1.8866    0.4968   -2.9047 C   0  0  0  0  0  0  0  0  0  0  0  0
    2.2093   -0.7419   -2.5069 C   0  0  0  0  0  0  0  0  0  0  0  0
    1.7180   -3.3965    0.5935 C   0  0  0  0  0  0  0  0  0  0  0  0
    1.0934   -2.4396    1.5712 C   0  0  0  0  0  0  0  0  0  0  0  0
    0.9888   -2.7047    2.8762 C   0  0  0  0  0  0  0  0  0  0  0  0
    1.4893   -3.9676    3.4315 C   0  0  0  0  0  0  0  0  0  0  0  0
    2.0646   -4.8591    2.5980 C   0  0  0  0  0  0  0  0  0  0  0  0
    2.1863   -4.5727    1.1289 C   0  0  0  0  0  0  0  0  0  0  0  0
   -0.0587    2.7778   -4.1265 C   0  0  0  0  0  0  0  0  0  0  0  0
    0.4770    3.6051   -1.8866 C   0  0  0  0  0  0  0  0  0  0  0  0
    0.4322   -3.5069    5.6361 C   0  0  0  0  0  0  0  0  0  0  0  0
    2.1549   -5.2740    5.4670 C   0  0  0  0  0  0  0  0  0  0  0  0
  1  2  1  0  0  0  0
  1 10  1  0  0  0  0
  1 16  1  0  0  0  0
  2  4  2  0  0  0  0
  2  9  1  0  0  0  0
  4  6  1  0  0  0  0
  6  7  2  0  0  0  0
  7  8  1  0  0  0  0
  8  9  2  0  0  0  0
 10 11  2  0  0  0  0
 10 15  1  0  0  0  0
 11 12  1  0  0  0  0
 12 13  2  0  0  0  0
 13  3  1  0  0  0  0
 13 14  1  0  0  0  0
 14 15  2  0  0  0  0
 16 17  2  0  0  0  0
 16 21  1  0  0  0  0
 17 18  1  0  0  0  0
 18 19  2  0  0  0  0
 19  5  1  0  0  0  0
 19 20  1  0  0  0  0
 20 21  2  0  0  0  0
 22  3  1  0  0  0  0
 23  3  1  0  0  0  0
 24  5  1  0  0  0  0
 25  5  1  0  0  0  0
M  END
>  <CHROM.1>
-141.20803648,137.19137073,-171.14569479,-112.53299719,17.86357000,1.53360044
-2.34076513,-0.44837532,-1.34051813,1.22847881,-1.09455852

>  <Name>
1q8n_lig

>  <RI>
0

>  <Rbt.Current_Directory>
/home/itssahil/PROJECTS/Mol_Feturizer/New_Systems/rnas/1q8n

>  <Rbt.Executable>
rbdock ($Id: //depot/dev/client3/rdock/2013.1/src/exe/rbdock.cxx#4 $)

>  <Rbt.Library>
libRbt.so (2013.1, Build901 2013/11/27)

>  <Rbt.Parameter_File>
/export/apps/rDock/src/rDock_2013.1_src/data/scripts/dock_solv.prm

>  <Rbt.Receptor>
prm/blind_docking_60.prm

>  <SCORE>
-40.5018

>  <SCORE.INTER>
-43.701

>  <SCORE.INTER.CONST>
1

>  <SCORE.INTER.POLAR>
0

>  <SCORE.INTER.ROT>
5

>  <SCORE.INTER.SOLV>
9.39922

>  <SCORE.INTER.VDW>
-39.2004

>  <SCORE.INTER.norm>
-1.74804

>  <SCORE.INTRA>
3.16228

>  <SCORE.INTRA.DIHEDRAL>
12.1216

>  <SCORE.INTRA.DIHEDRAL.0>
2.1627

>  <SCORE.INTRA.POLAR>
0

>  <SCORE.INTRA.POLAR.0>
0

>  <SCORE.INTRA.REPUL>
0

>  <SCORE.INTRA.REPUL.0>
0

>  <SCORE.INTRA.SOLV>
0.0285375

>  <SCORE.INTRA.SOLV.lig_0>
-5.95779

>  <SCORE.INTRA.VDW>
-2.91278

>  <SCORE.INTRA.VDW.0>
3.81702

>  <SCORE.INTRA.norm>
0.126491

>  <SCORE.RESTR>
0.0369096

>  <SCORE.RESTR.CAVITY>
0.0369096

>  <SCORE.RESTR.norm>
0.00147638

>  <SCORE.SYSTEM>
0

>  <SCORE.SYSTEM.CONST>
0

>  <SCORE.SYSTEM.DIHEDRAL>
0

>  <SCORE.SYSTEM.SOLV>
0

>  <SCORE.SYSTEM.norm>
0

>  <SCORE.heavy>
25

>  <SCORE.norm>
-1.62007

>  <RMSD>
6.589

$$$$
1q8n_lig
 OpenBabel11021811403D
libRbt.so/2013.1/901 2013/11/27
 25 27  0  0  0  0  0  0  0  0999 V2000
    2.0981   -3.6796   -2.2691 C   0  0  0  0  0  0  0  0  0  0  0  0
    1.6778   -4.7020   -1.0675 C   0  0  0  0  0  0  0  0  0  0  0  0
    0.5988    2.0584   -1.7698 N   0  0  0  0  0  0  0  0  0  0  0  0
    1.4592   -6.0256   -1.2546 C   0  0  0  0  0  0  0  0  0  0  0  0
    5.2852   -5.4480   -7.0260 N   0  0  0  0  0  0  0  0  0  0  0  0
    1.0734   -6.9183   -0.1373 C   0  0  0  0  0  0  0  0  0  0  0  0
    0.9334   -6.4117    1.1092 C   0  0  0  0  0  0  0  0  0  0  0  0
    1.1684   -5.0042    1.3320 C   0  0  0  0  0  0  0  0  0  0  0  0
    1.5139   -4.2093    0.3161 C   0  0  0  0  0  0  0  0  0  0  0  0
    1.6832   -2.1085   -2.1288 C   0  0  0  0  0  0  0  0  0  0  0  0
    0.8722   -1.6852   -1.1372 C   0  0  0  0  0  0  0  0  0  0  0  0
    0.4830   -0.2548   -0.9938 C   0  0  0  0  0  0  0  0  0  0  0  0
    0.9475    0.6722   -1.8736 C   0  0  0  0  0  0  0  0  0  0  0  0
    1.8370    0.2246   -2.9619 C   0  0  0  0  0  0  0  0  0  0  0  0
    2.1759   -1.0671   -3.0774 C   0  0  0  0  0  0  0  0  0  0  0  0
    2.9244   -4.2006   -3.6086 C   0  0  0  0  0  0  0  0  0  0  0  0
    4.2993   -3.6626   -3.8948 C   0  0  0  0  0  0  0  0  0  0  0  0
    5.0213   -4.0479   -4.9505 C   0  0  0  0  0  0  0  0  0  0  0  0
    4.4974   -5.0340   -5.9028 C   0  0  0  0  0  0  0  0  0  0  0  0
    3.2656   -5.5440   -5.6957 C   0  0  0  0  0  0  0  0  0  0  0  0
    2.4454   -5.1196   -4.5116 C   0  0  0  0  0  0  0  0  0  0  0  0
    0.8170    2.9831   -2.8401 C   0  0  0  0  0  0  0  0  0  0  0  0
    0.0102    2.5635   -0.5683 C   0  0  0  0  0  0  0  0  0  0  0  0
    6.7054   -5.2445   -7.0301 C   0  0  0  0  0  0  0  0  0  0  0  0
    4.6788   -6.0824   -8.1746 C   0  0  0  0  0  0  0  0  0  0  0  0
  1  2  1  0  0  0  0
  1 10  1  0  0  0  0
  1 16  1  0  0  0  0
  2  4  2  0  0  0  0
  2  9  1  0  0  0  0
  4  6  1  0  0  0  0
  6  7  2  0  0  0  0
  7  8  1  0  0  0  0
  8  9  2  0  0  0  0
 10 11  2  0  0  0  0
 10 15  1  0  0  0  0
 11 12  1  0  0  0  0
 12 13  2  0  0  0  0
 13  3  1  0  0  0  0
 13 14  1  0  0  0  0
 14 15  2  0  0  0  0
 16 17  2  0  0  0  0
 16 21  1  0  0  0  0
 17 18  1  0  0  0  0
 18 19  2  0  0  0  0
 19  5  1  0  0  0  0
 19 20  1  0  0  0  0
 20 21  2  0  0  0  0
 22  3  1  0  0  0  0
 23  3  1  0  0  0  0
 24  5  1  0  0  0  0
 25  5  1  0  0  0  0
M  END
>  <CHROM.1>
152.35540309,-8.20177204,-117.25161425,-165.26563039,19.15602088,2.35978905
-3.06924725,-2.85760970,2.64979108,1.02585550,-0.33831192

>  <Name>
1q8n_lig

>  <RI>
0

>  <Rbt.Current_Directory>
/home/itssahil/PROJECTS/Mol_Feturizer/New_Systems/rnas/1q8n

>  <Rbt.Executable>
rbdock ($Id: //depot/dev/client3/rdock/2013.1/src/exe/rbdock.cxx#4 $)

>  <Rbt.Library>
libRbt.so (2013.1, Build901 2013/11/27)

>  <Rbt.Parameter_File>
/export/apps/rDock/src/rDock_2013.1_src/data/scripts/dock_solv.prm

>  <Rbt.Receptor>
prm/blind_docking_60.prm

>  <SCORE>
-35.2658

>  <SCORE.INTER>
-36.2132

>  <SCORE.INTER.CONST>
1

>  <SCORE.INTER.POLAR>
0

>  <SCORE.INTER.ROT>
5

>  <SCORE.INTER.SOLV>
10.3577

>  <SCORE.INTER.VDW>
-34.528

>  <SCORE.INTER.norm>
-1.44853

>  <SCORE.INTRA>
0.715982

>  <SCORE.INTRA.DIHEDRAL>
2.20301

>  <SCORE.INTRA.DIHEDRAL.0>
2.1627

>  <SCORE.INTRA.POLAR>
0

>  <SCORE.INTRA.POLAR.0>
0

>  <SCORE.INTRA.REPUL>
0

>  <SCORE.INTRA.REPUL.0>
0

>  <SCORE.INTRA.SOLV>
0.0211897

>  <SCORE.INTRA.SOLV.lig_0>
-5.95779

>  <SCORE.INTRA.VDW>
-0.39612

>  <SCORE.INTRA.VDW.0>
3.81702

>  <SCORE.INTRA.norm>
0.0286393

>  <SCORE.RESTR>
0.231402

>  <SCORE.RESTR.CAVITY>
0.231402

>  <SCORE.RESTR.norm>
0.00925607

>  <SCORE.SYSTEM>
0

>  <SCORE.SYSTEM.CONST>
0

>  <SCORE.SYSTEM.DIHEDRAL>
0

>  <SCORE.SYSTEM.SOLV>
0

>  <SCORE.SYSTEM.norm>
0

>  <SCORE.heavy>
25

>  <SCORE.norm>
-1.41063

>  <RMSD>
6.607

$$$$
1q8n_lig
 OpenBabel11021811403D
libRbt.so/2013.1/901 2013/11/27
 25 27  0  0  0  0  0  0  0  0999 V2000
    1.2218   -2.4805   -0.5168 C   0  0  0  0  0  0  0  0  0  0  0  0
    1.6723   -3.7365   -1.4575 C   0  0  0  0  0  0  0  0  0  0  0  0
    0.5327    2.8572   -3.0576 N   0  0  0  0  0  0  0  0  0  0  0  0
    2.2830   -3.5902   -2.6577 C   0  0  0  0  0  0  0  0  0  0  0  0
    0.3342   -3.3628    5.3438 N   0  0  0  0  0  0  0  0  0  0  0  0
    2.6706   -4.7572   -3.4834 C   0  0  0  0  0  0  0  0  0  0  0  0
    2.4151   -6.0089   -3.0386 C   0  0  0  0  0  0  0  0  0  0  0  0
    1.7708   -6.1877   -1.7585 C   0  0  0  0  0  0  0  0  0  0  0  0
    1.4245   -5.1275   -1.0241 C   0  0  0  0  0  0  0  0  0  0  0  0
    1.0381   -1.0178   -1.2147 C   0  0  0  0  0  0  0  0  0  0  0  0
    1.9413   -0.5467   -2.0994 C   0  0  0  0  0  0  0  0  0  0  0  0
    1.7898    0.7862   -2.7463 C   0  0  0  0  0  0  0  0  0  0  0  0
    0.7169    1.5697   -2.4559 C   0  0  0  0  0  0  0  0  0  0  0  0
   -0.2802    1.0670   -1.4919 C   0  0  0  0  0  0  0  0  0  0  0  0
   -0.1274   -0.1344   -0.9175 C   0  0  0  0  0  0  0  0  0  0  0  0
    0.9531   -2.6608    1.1093 C   0  0  0  0  0  0  0  0  0  0  0  0
    1.0635   -4.0221    1.7386 C   0  0  0  0  0  0  0  0  0  0  0  0
    0.8690   -4.2337    3.0432 C   0  0  0  0  0  0  0  0  0  0  0  0
    0.5301   -3.1260    3.9442 C   0  0  0  0  0  0  0  0  0  0  0  0
    0.4127   -1.8844    3.4292 C   0  0  0  0  0  0  0  0  0  0  0  0
    0.6306   -1.6343    1.9647 C   0  0  0  0  0  0  0  0  0  0  0  0
    0.1663    3.0123   -4.4325 C   0  0  0  0  0  0  0  0  0  0  0  0
    0.7133    4.0455   -2.2826 C   0  0  0  0  0  0  0  0  0  0  0  0
   -0.6274   -2.5952    6.0816 C   0  0  0  0  0  0  0  0  0  0  0  0
    1.0883   -4.3767    6.0459 C   0  0  0  0  0  0  0  0  0  0  0  0
  1  2  1  0  0  0  0
  1 10  1  0  0  0  0
  1 16  1  0  0  0  0
  2  4  2  0  0  0  0
  2  9  1  0  0  0  0
  4  6  1  0  0  0  0
  6  7  2  0  0  0  0
  7  8  1  0  0  0  0
  8  9  2  0  0  0  0
 10 11  2  0  0  0  0
 10 15  1  0  0  0  0
 11 12  1  0  0  0  0
 12 13  2  0  0  0  0
 13  3  1  0  0  0  0
 13 14  1  0  0  0  0
 14 15  2  0  0  0  0
 16 17  2  0  0  0  0
 16 21  1  0  0  0  0
 17 18  1  0  0  0  0
 18 19  2  0  0  0  0
 19  5  1  0  0  0  0
 19 20  1  0  0  0  0
 20 21  2  0  0  0  0
 22  3  1  0  0  0  0
 23  3  1  0  0  0  0
 24  5  1  0  0  0  0
 25  5  1  0  0  0  0
M  END
>  <CHROM.1>
20.63126254,-44.18544818,-2.77548416,71.87469266,-146.21513945,0.98866340
-1.87031148,-0.03613347,-1.49493665,-1.27948433,2.29301952

>  <Name>
1q8n_lig

>  <RI>
0

>  <Rbt.Current_Directory>
/home/itssahil/PROJECTS/Mol_Feturizer/New_Systems/rnas/1q8n

>  <Rbt.Executable>
rbdock ($Id: //depot/dev/client3/rdock/2013.1/src/exe/rbdock.cxx#4 $)

>  <Rbt.Library>
libRbt.so (2013.1, Build901 2013/11/27)

>  <Rbt.Parameter_File>
/export/apps/rDock/src/rDock_2013.1_src/data/scripts/dock_solv.prm

>  <Rbt.Receptor>
prm/blind_docking_80.prm

>  <SCORE>
-34.612

>  <SCORE.INTER>
-38.8075

>  <SCORE.INTER.CONST>
1

>  <SCORE.INTER.POLAR>
0

>  <SCORE.INTER.ROT>
5

>  <SCORE.INTER.SOLV>
8.08789

>  <SCORE.INTER.VDW>
-35.501

>  <SCORE.INTER.norm>
-1.5523

>  <SCORE.INTRA>
4.17457

>  <SCORE.INTRA.DIHEDRAL>
15.5161

>  <SCORE.INTRA.DIHEDRAL.0>
2.1627

>  <SCORE.INTRA.POLAR>
0

>  <SCORE.INTRA.POLAR.0>
0

>  <SCORE.INTRA.REPUL>
0

>  <SCORE.INTRA.REPUL.0>
0

>  <SCORE.INTRA.SOLV>
0.0412373

>  <SCORE.INTRA.SOLV.lig_0>
-5.95779

>  <SCORE.INTRA.VDW>
-3.60411

>  <SCORE.INTRA.VDW.0>
3.81702

>  <SCORE.INTRA.norm>
0.166983

>  <SCORE.RESTR>
0.020958

>  <SCORE.RESTR.CAVITY>
0.020958

>  <SCORE.RESTR.norm>
0.000838319

>  <SCORE.SYSTEM>
0

>  <SCORE.SYSTEM.CONST>
0

>  <SCORE.SYSTEM.DIHEDRAL>
0

>  <SCORE.SYSTEM.SOLV>
0

>  <SCORE.SYSTEM.norm>
0

>  <SCORE.heavy>
25

>  <SCORE.norm>
-1.38448

>  <RMSD>
6.610

$$$$
1q8n_lig
 OpenBabel11021811403D
libRbt.so/2013.1/901 2013/11/27
 25 27  0  0  0  0  0  0  0  0999 V2000
    1.6398   -2.9049   -0.5596 C   0  0  0  0  0  0  0  0  0  0  0  0
    1.8730   -4.1068   -1.6396 C   0  0  0  0  0  0  0  0  0  0  0  0
    1.5160   -4.2780    5.2301 N   0  0  0  0  0  0  0  0  0  0  0  0
    1.6042   -5.4086   -1.3789 C   0  0  0  0  0  0  0  0  0  0  0  0
    0.8432    2.8438   -2.0534 N   0  0  0  0  0  0  0  0  0  0  0  0
    1.8358   -6.4700   -2.3857 C   0  0  0  0  0  0  0  0  0  0  0  0
    2.3273   -6.1447   -3.6033 C   0  0  0  0  0  0  0  0  0  0  0  0
    2.6145   -4.7617   -3.9045 C   0  0  0  0  0  0  0  0  0  0  0  0
    2.4032   -3.8141   -2.9877 C   0  0  0  0  0  0  0  0  0  0  0  0
    1.6100   -3.2846    1.0263 C   0  0  0  0  0  0  0  0  0  0  0  0
    2.6416   -3.9284    1.6108 C   0  0  0  0  0  0  0  0  0  0  0  0
    2.6316   -4.2830    3.0572 C   0  0  0  0  0  0  0  0  0  0  0  0
    1.5643   -3.9570    3.8343 C   0  0  0  0  0  0  0  0  0  0  0  0
    0.4298   -3.2509    3.2097 C   0  0  0  0  0  0  0  0  0  0  0  0
    0.4544   -2.9409    1.9059 C   0  0  0  0  0  0  0  0  0  0  0  0
    1.4345   -1.3306   -1.0372 C   0  0  0  0  0  0  0  0  0  0  0  0
    0.8426   -0.3309   -0.0823 C   0  0  0  0  0  0  0  0  0  0  0  0
    0.6598    0.9533   -0.4011 C   0  0  0  0  0  0  0  0  0  0  0  0
    1.0339    1.4618   -1.7260 C   0  0  0  0  0  0  0  0  0  0  0  0
    1.5639    0.6047   -2.6231 C   0  0  0  0  0  0  0  0  0  0  0  0
    1.7756   -0.8407   -2.2754 C   0  0  0  0  0  0  0  0  0  0  0  0
    0.5106   -3.7496    6.1010 C   0  0  0  0  0  0  0  0  0  0  0  0
    2.4916   -5.1544    5.8004 C   0  0  0  0  0  0  0  0  0  0  0  0
    0.4908    3.7888   -1.0331 C   0  0  0  0  0  0  0  0  0  0  0  0
    1.0047    3.3232   -3.4075 C   0  0  0  0  0  0  0  0  0  0  0  0
  1  2  1  0  0  0  0
  1 10  1  0  0  0  0
  1 16  1  0  0  0  0
  2  4  2  0  0  0  0
  2  9  1  0  0  0  0
  4  6  1  0  0  0  0
  6  7  2  0  0  0  0
  7  8  1  0  0  0  0
  8  9  2  0  0  0  0
 10 11  2  0  0  0  0
 10 15  1  0  0  0  0
 11 12  1  0  0  0  0
 12 13  2  0  0  0  0
 13  3  1  0  0  0  0
 13 14  1  0  0  0  0
 14 15  2  0  0  0  0
 16 17  2  0  0  0  0
 16 21  1  0  0  0  0
 17 18  1  0  0  0  0
 18 19  2  0  0  0  0
 19  5  1  0  0  0  0
 19 20  1  0  0  0  0
 20 21  2  0  0  0  0
 22  3  1  0  0  0  0
 23  3  1  0  0  0  0
 24  5  1  0  0  0  0
 25  5  1  0  0  0  0
M  END
>  <CHROM.1>
22.88603166,56.09983487,162.60048547,169.31150558,10.11988759,1.50056735
-2.26449974,0.08029938,-1.89401715,-1.37286689,2.02883594

>  <Name>
1q8n_lig

>  <RI>
0

>  <Rbt.Current_Directory>
/home/itssahil/PROJECTS/Mol_Feturizer/New_Systems/rnas/1q8n

>  <Rbt.Executable>
rbdock ($Id: //depot/dev/client3/rdock/2013.1/src/exe/rbdock.cxx#4 $)

>  <Rbt.Library>
libRbt.so (2013.1, Build901 2013/11/27)

>  <Rbt.Parameter_File>
/export/apps/rDock/src/rDock_2013.1_src/data/scripts/dock_solv.prm

>  <Rbt.Receptor>
prm/blind_docking_80.prm

>  <SCORE>
-42.7527

>  <SCORE.INTER>
-43.6544

>  <SCORE.INTER.CONST>
1

>  <SCORE.INTER.POLAR>
0

>  <SCORE.INTER.ROT>
5

>  <SCORE.INTER.SOLV>
8.98287

>  <SCORE.INTER.VDW>
-39.0305

>  <SCORE.INTER.norm>
-1.74617

>  <SCORE.INTRA>
0.275065

>  <SCORE.INTRA.DIHEDRAL>
0.830445

>  <SCORE.INTRA.DIHEDRAL.0>
2.1627

>  <SCORE.INTRA.POLAR>
0

>  <SCORE.INTRA.POLAR.0>
0

>  <SCORE.INTRA.REPUL>
0

>  <SCORE.INTRA.REPUL.0>
0

>  <SCORE.INTRA.SOLV>
0.0209531

>  <SCORE.INTRA.SOLV.lig_0>
-5.95779

>  <SCORE.INTRA.VDW>
-0.150634

>  <SCORE.INTRA.VDW.0>
3.81702

>  <SCORE.INTRA.norm>
0.0110026

>  <SCORE.RESTR>
0.626577

>  <SCORE.RESTR.CAVITY>
0.626577

>  <SCORE.RESTR.norm>
0.0250631

>  <SCORE.SYSTEM>
0

>  <SCORE.SYSTEM.CONST>
0

>  <SCORE.SYSTEM.DIHEDRAL>
0

>  <SCORE.SYSTEM.SOLV>
0

>  <SCORE.SYSTEM.norm>
0

>  <SCORE.heavy>
25

>  <SCORE.norm>
-1.71011

>  <RMSD>
6.612

$$$$
1q8n_lig
 OpenBabel11021811403D
libRbt.so/2013.1/901 2013/11/27
 25 27  0  0  0  0  0  0  0  0999 V2000
    2.2477   -3.6897   -2.2926 C   0  0  0  0  0  0  0  0  0  0  0  0
    1.7606   -4.8295   -1.2299 C   0  0  0  0  0  0  0  0  0  0  0  0
    5.4065   -5.4291   -7.0274 N   0  0  0  0  0  0  0  0  0  0  0  0
    1.5328   -6.1205   -1.5706 C   0  0  0  0  0  0  0  0  0  0  0  0
    0.8486    2.1129   -1.7587 N   0  0  0  0  0  0  0  0  0  0  0  0
    1.0857   -7.1228   -0.5759 C   0  0  0  0  0  0  0  0  0  0  0  0
    0.8972   -6.7531    0.7116 C   0  0  0  0  0  0  0  0  0  0  0  0
    1.1409   -5.3829    1.0978 C   0  0  0  0  0  0  0  0  0  0  0  0
    1.5419   -4.4882    0.1913 C   0  0  0  0  0  0  0  0  0  0  0  0
    3.1164   -4.1620   -3.5897 C   0  0  0  0  0  0  0  0  0  0  0  0
    4.3099   -3.6007   -3.8741 C   0  0  0  0  0  0  0  0  0  0  0  0
    5.1166   -4.0193   -5.0539 C   0  0  0  0  0  0  0  0  0  0  0  0
    4.6605   -4.9958   -5.8831 C   0  0  0  0  0  0  0  0  0  0  0  0
    3.3581   -5.6204   -5.5836 C   0  0  0  0  0  0  0  0  0  0  0  0
    2.6440   -5.2303   -4.5185 C   0  0  0  0  0  0  0  0  0  0  0  0
    1.8828   -2.0864   -2.0806 C   0  0  0  0  0  0  0  0  0  0  0  0
    1.4933   -1.2456   -3.2650 C   0  0  0  0  0  0  0  0  0  0  0  0
    1.1784    0.0484   -3.1610 C   0  0  0  0  0  0  0  0  0  0  0  0
    1.1987    0.7270   -1.8599 C   0  0  0  0  0  0  0  0  0  0  0  0
    1.5474    0.0194   -0.7653 C   0  0  0  0  0  0  0  0  0  0  0  0
    1.9018   -1.4360   -0.8698 C   0  0  0  0  0  0  0  0  0  0  0  0
    6.8204   -5.2350   -7.1357 C   0  0  0  0  0  0  0  0  0  0  0  0
    4.7429   -6.0815   -8.1133 C   0  0  0  0  0  0  0  0  0  0  0  0
    0.8780    2.9550   -2.9199 C   0  0  0  0  0  0  0  0  0  0  0  0
    0.4534    2.6966   -0.4967 C   0  0  0  0  0  0  0  0  0  0  0  0
  1  2  1  0  0  0  0
  1 10  1  0  0  0  0
  1 16  1  0  0  0  0
  2  4  2  0  0  0  0
  2  9  1  0  0  0  0
  4  6  1  0  0  0  0
  6  7  2  0  0  0  0
  7  8  1  0  0  0  0
  8  9  2  0  0  0  0
 10 11  2  0  0  0  0
 10 15  1  0  0  0  0
 11 12  1  0  0  0  0
 12 13  2  0  0  0  0
 13  3  1  0  0  0  0
 13 14  1  0  0  0  0
 14 15  2  0  0  0  0
 16 17  2  0  0  0  0
 16 21  1  0  0  0  0
 17 18  1  0  0  0  0
 18 19  2  0  0  0  0
 19  5  1  0  0  0  0
 19 20  1  0  0  0  0
 20 21  2  0  0  0  0
 22  3  1  0  0  0  0
 23  3  1  0  0  0  0
 24  5  1  0  0  0  0
 25  5  1  0  0  0  0
M  END
>  <CHROM.1>
-27.99732834,-126.29360669,-139.86724730,22.02445605,-19.37573856,2.49207929
-3.10865597,-2.91710618,0.61368105,-1.02648483,2.87468278

>  <Name>
1q8n_lig

>  <RI>
0

>  <Rbt.Current_Directory>
/home/itssahil/PROJECTS/Mol_Feturizer/New_Systems/rnas/1q8n

>  <Rbt.Executable>
rbdock ($Id: //depot/dev/client3/rdock/2013.1/src/exe/rbdock.cxx#4 $)

>  <Rbt.Library>
libRbt.so (2013.1, Build901 2013/11/27)

>  <Rbt.Parameter_File>
/export/apps/rDock/src/rDock_2013.1_src/data/scripts/dock_solv.prm

>  <Rbt.Receptor>
prm/blind_docking_100.prm

>  <SCORE>
-35.1086

>  <SCORE.INTER>
-35.7663

>  <SCORE.INTER.CONST>
1

>  <SCORE.INTER.POLAR>
0

>  <SCORE.INTER.ROT>
5

>  <SCORE.INTER.SOLV>
11.1295

>  <SCORE.INTER.VDW>
-34.4874

>  <SCORE.INTER.norm>
-1.43065

>  <SCORE.INTRA>
0.496746

>  <SCORE.INTRA.DIHEDRAL>
3.20984

>  <SCORE.INTRA.DIHEDRAL.0>
2.1627

>  <SCORE.INTRA.POLAR>
0

>  <SCORE.INTRA.POLAR.0>
0

>  <SCORE.INTRA.REPUL>
0

>  <SCORE.INTRA.REPUL.0>
0

>  <SCORE.INTRA.SOLV>
0.00434934

>  <SCORE.INTRA.SOLV.lig_0>
-5.95779

>  <SCORE.INTRA.VDW>
-1.11035

>  <SCORE.INTRA.VDW.0>
3.81702

>  <SCORE.INTRA.norm>
0.0198698

>  <SCORE.RESTR>
0.160972

>  <SCORE.RESTR.CAVITY>
0.160972

>  <SCORE.RESTR.norm>
0.00643887

>  <SCORE.SYSTEM>
0

>  <SCORE.SYSTEM.CONST>
0

>  <SCORE.SYSTEM.DIHEDRAL>
0

>  <SCORE.SYSTEM.SOLV>
0

>  <SCORE.SYSTEM.norm>
0

>  <SCORE.heavy>
25

>  <SCORE.norm>
-1.40434

>  <RMSD>
6.662

$$$$
1q8n_lig
 OpenBabel11021811403D
libRbt.so/2013.1/901 2013/11/27
 25 27  0  0  0  0  0  0  0  0999 V2000
    1.6193   -3.0941   -0.1573 C   0  0  0  0  0  0  0  0  0  0  0  0
    1.7993   -4.2326   -1.3136 C   0  0  0  0  0  0  0  0  0  0  0  0
    0.8301    2.5597   -1.8407 N   0  0  0  0  0  0  0  0  0  0  0  0
    2.3160   -3.9777   -2.5396 C   0  0  0  0  0  0  0  0  0  0  0  0
    1.4859   -4.4404    5.6807 N   0  0  0  0  0  0  0  0  0  0  0  0
    2.4569   -5.0391   -3.5630 C   0  0  0  0  0  0  0  0  0  0  0  0
    2.0645   -6.3021   -3.2788 C   0  0  0  0  0  0  0  0  0  0  0  0
    1.5172   -6.5971   -1.9752 C   0  0  0  0  0  0  0  0  0  0  0  0
    1.3935   -5.6311   -1.0617 C   0  0  0  0  0  0  0  0  0  0  0  0
    1.4066   -1.5454   -0.6227 C   0  0  0  0  0  0  0  0  0  0  0  0
    1.8158   -1.1169   -1.8348 C   0  0  0  0  0  0  0  0  0  0  0  0
    1.6298    0.2932   -2.2764 C   0  0  0  0  0  0  0  0  0  0  0  0
    1.0300    1.1945   -1.4534 C   0  0  0  0  0  0  0  0  0  0  0  0
    0.5752    0.7400   -0.1258 C   0  0  0  0  0  0  0  0  0  0  0  0
    0.7522   -0.5325    0.2565 C   0  0  0  0  0  0  0  0  0  0  0  0
    1.6497   -3.4764    1.4556 C   0  0  0  0  0  0  0  0  0  0  0  0
    0.4236   -3.2585    2.2986 C   0  0  0  0  0  0  0  0  0  0  0  0
    0.3791   -3.5543    3.6005 C   0  0  0  0  0  0  0  0  0  0  0  0
    1.5484   -4.1167    4.2862 C   0  0  0  0  0  0  0  0  0  0  0  0
    2.6768   -4.3265    3.5768 C   0  0  0  0  0  0  0  0  0  0  0  0
    2.7381   -3.9992    2.1126 C   0  0  0  0  0  0  0  0  0  0  0  0
    0.4024    3.5620   -0.9128 C   0  0  0  0  0  0  0  0  0  0  0  0
    1.0587    2.9642   -3.1932 C   0  0  0  0  0  0  0  0  0  0  0  0
    2.3130   -5.4803    6.2216 C   0  0  0  0  0  0  0  0  0  0  0  0
    0.6003   -3.7312    6.5765 C   0  0  0  0  0  0  0  0  0  0  0  0
  1  2  1  0  0  0  0
  1 10  1  0  0  0  0
  1 16  1  0  0  0  0
  2  4  2  0  0  0  0
  2  9  1  0  0  0  0
  4  6  1  0  0  0  0
  6  7  2  0  0  0  0
  7  8  1  0  0  0  0
  8  9  2  0  0  0  0
 10 11  2  0  0  0  0
 10 15  1  0  0  0  0
 11 12  1  0  0  0  0
 12 13  2  0  0  0  0
 13  3  1  0  0  0  0
 13 14  1  0  0  0  0
 14 15  2  0  0  0  0
 16 17  2  0  0  0  0
 16 21  1  0  0  0  0
 17 18  1  0  0  0  0
 18 19  2  0  0  0  0
 19  5  1  0  0  0  0
 19 20  1  0  0  0  0
 20 21  2  0  0  0  0
 22  3  1  0  0  0  0
 23  3  1  0  0  0  0
 24  5  1  0  0  0  0
 25  5  1  0  0  0  0
M  END
>  <CHROM.1>
27.87784645,-22.76914363,-116.25705771,-169.61892109,152.06907531,1.44815156
-2.47218869,0.44798658,-1.89936126,-1.39659705,1.97335709

>  <Name>
1q8n_lig

>  <RI>
0

>  <Rbt.Current_Directory>
/home/itssahil/PROJECTS/Mol_Feturizer/New_Systems/rnas/1q8n

>  <Rbt.Executable>
rbdock ($Id: //depot/dev/client3/rdock/2013.1/src/exe/rbdock.cxx#4 $)

>  <Rbt.Library>
libRbt.so (2013.1, Build901 2013/11/27)

>  <Rbt.Parameter_File>
/export/apps/rDock/src/rDock_2013.1_src/data/scripts/dock_solv.prm

>  <Rbt.Receptor>
prm/blind_docking_40.prm

>  <SCORE>
-44.1784

>  <SCORE.INTER>
-45.112

>  <SCORE.INTER.CONST>
1

>  <SCORE.INTER.POLAR>
0

>  <SCORE.INTER.ROT>
5

>  <SCORE.INTER.SOLV>
9.20078

>  <SCORE.INTER.VDW>
-40.0749

>  <SCORE.INTER.norm>
-1.80448

>  <SCORE.INTRA>
0.927374

>  <SCORE.INTRA.DIHEDRAL>
3.22388

>  <SCORE.INTRA.DIHEDRAL.0>
2.1627

>  <SCORE.INTRA.POLAR>
0

>  <SCORE.INTRA.POLAR.0>
0

>  <SCORE.INTRA.REPUL>
0

>  <SCORE.INTRA.REPUL.0>
0

>  <SCORE.INTRA.SOLV>
0.0120185

>  <SCORE.INTRA.SOLV.lig_0>
-5.95779

>  <SCORE.INTRA.VDW>
-0.690576

>  <SCORE.INTRA.VDW.0>
3.81702

>  <SCORE.INTRA.norm>
0.037095

>  <SCORE.RESTR>
0.00627689

>  <SCORE.RESTR.CAVITY>
0.00627689

>  <SCORE.RESTR.norm>
0.000251075

>  <SCORE.SYSTEM>
0

>  <SCORE.SYSTEM.CONST>
0

>  <SCORE.SYSTEM.DIHEDRAL>
0

>  <SCORE.SYSTEM.SOLV>
0

>  <SCORE.SYSTEM.norm>
0

>  <SCORE.heavy>
25

>  <SCORE.norm>
-1.76713

>  <RMSD>
6.830

$$$$
1q8n_lig
 OpenBabel11021811403D
libRbt.so/2013.1/901 2013/11/27
 25 27  0  0  0  0  0  0  0  0999 V2000
    1.6804   -3.0641   -0.1089 C   0  0  0  0  0  0  0  0  0  0  0  0
    1.7453   -4.3303   -1.1375 C   0  0  0  0  0  0  0  0  0  0  0  0
    2.2153   -4.1514    5.7180 N   0  0  0  0  0  0  0  0  0  0  0  0
    1.3573   -5.5846   -0.8043 C   0  0  0  0  0  0  0  0  0  0  0  0
    0.8419    2.6117   -1.8396 N   0  0  0  0  0  0  0  0  0  0  0  0
    1.4378   -6.7078   -1.7665 C   0  0  0  0  0  0  0  0  0  0  0  0
    1.9083   -6.4892   -3.0158 C   0  0  0  0  0  0  0  0  0  0  0  0
    2.3212   -5.1579   -3.3940 C   0  0  0  0  0  0  0  0  0  0  0  0
    2.2455   -4.1539   -2.5169 C   0  0  0  0  0  0  0  0  0  0  0  0
    1.8262   -3.3568    1.4890 C   0  0  0  0  0  0  0  0  0  0  0  0
    1.4233   -2.4522    2.4053 C   0  0  0  0  0  0  0  0  0  0  0  0
    1.5488   -2.7025    3.8680 C   0  0  0  0  0  0  0  0  0  0  0  0
    2.0790   -3.8706    4.3194 C   0  0  0  0  0  0  0  0  0  0  0  0
    2.5219   -4.8703    3.3292 C   0  0  0  0  0  0  0  0  0  0  0  0
    2.4034   -4.6280    2.0163 C   0  0  0  0  0  0  0  0  0  0  0  0
    1.4711   -1.5109   -0.6496 C   0  0  0  0  0  0  0  0  0  0  0  0
    0.7428   -0.5128    0.2077 C   0  0  0  0  0  0  0  0  0  0  0  0
    0.5490    0.7553   -0.1647 C   0  0  0  0  0  0  0  0  0  0  0  0
    1.0462    1.2465   -1.4551 C   0  0  0  0  0  0  0  0  0  0  0  0
    1.7015    0.3897   -2.2657 C   0  0  0  0  0  0  0  0  0  0  0  0
    1.9266   -1.0376   -1.8570 C   0  0  0  0  0  0  0  0  0  0  0  0
    2.2817   -5.4880    6.2258 C   0  0  0  0  0  0  0  0  0  0  0  0
    2.2913   -3.0801    6.6623 C   0  0  0  0  0  0  0  0  0  0  0  0
    0.4310    3.5848   -0.8687 C   0  0  0  0  0  0  0  0  0  0  0  0
    1.0477    3.0461   -3.2028 C   0  0  0  0  0  0  0  0  0  0  0  0
  1  2  1  0  0  0  0
  1 10  1  0  0  0  0
  1 16  1  0  0  0  0
  2  4  2  0  0  0  0
  2  9  1  0  0  0  0
  4  6  1  0  0  0  0
  6  7  2  0  0  0  0
  7  8  1  0  0  0  0
  8  9  2  0  0  0  0
 10 11  2  0  0  0  0
 10 15  1  0  0  0  0
 11 12  1  0  0  0  0
 12 13  2  0  0  0  0
 13  3  1  0  0  0  0
 13 14  1  0  0  0  0
 14 15  2  0  0  0  0
 16 17  2  0  0  0  0
 16 21  1  0  0  0  0
 17 18  1  0  0  0  0
 18 19  2  0  0  0  0
 19  5  1  0  0  0  0
 19 20  1  0  0  0  0
 20 21  2  0  0  0  0
 22  3  1  0  0  0  0
 23  3  1  0  0  0  0
 24  5  1  0  0  0  0
 25  5  1  0  0  0  0
M  END
>  <CHROM.1>
28.79029701,-161.48867336,148.86630553,155.99398916,14.25242218,1.63808340
-2.40373260,0.49853601,-0.51726419,1.42691357,-1.86544305

>  <Name>
1q8n_lig

>  <RI>
0

>  <Rbt.Current_Directory>
/home/itssahil/PROJECTS/Mol_Feturizer/New_Systems/rnas/1q8n

>  <Rbt.Executable>
rbdock ($Id: //depot/dev/client3/rdock/2013.1/src/exe/rbdock.cxx#4 $)

>  <Rbt.Library>
libRbt.so (2013.1, Build901 2013/11/27)

>  <Rbt.Parameter_File>
/export/apps/rDock/src/rDock_2013.1_src/data/scripts/dock_solv.prm

>  <Rbt.Receptor>
prm/blind_docking_40.prm

>  <SCORE>
-41.1128

>  <SCORE.INTER>
-42.2595

>  <SCORE.INTER.CONST>
1

>  <SCORE.INTER.POLAR>
0

>  <SCORE.INTER.ROT>
5

>  <SCORE.INTER.SOLV>
9.16213

>  <SCORE.INTER.VDW>
-38.1604

>  <SCORE.INTER.norm>
-1.69038

>  <SCORE.INTRA>
1.11658

>  <SCORE.INTRA.DIHEDRAL>
2.88939

>  <SCORE.INTRA.DIHEDRAL.0>
2.1627

>  <SCORE.INTRA.POLAR>
0

>  <SCORE.INTRA.POLAR.0>
0

>  <SCORE.INTRA.REPUL>
0

>  <SCORE.INTRA.REPUL.0>
0

>  <SCORE.INTRA.SOLV>
0.0457843

>  <SCORE.INTRA.SOLV.lig_0>
-5.95779

>  <SCORE.INTRA.VDW>
-0.35101

>  <SCORE.INTRA.VDW.0>
3.81702

>  <SCORE.INTRA.norm>
0.0446632

>  <SCORE.RESTR>
0.0301157

>  <SCORE.RESTR.CAVITY>
0.0301157

>  <SCORE.RESTR.norm>
0.00120463

>  <SCORE.SYSTEM>
0

>  <SCORE.SYSTEM.CONST>
0

>  <SCORE.SYSTEM.DIHEDRAL>
0

>  <SCORE.SYSTEM.SOLV>
0

>  <SCORE.SYSTEM.norm>
0

>  <SCORE.heavy>
25

>  <SCORE.norm>
-1.64451

>  <RMSD>
6.885

$$$$
1q8n_lig
 OpenBabel11021811413D
libRbt.so/2013.1/901 2013/11/27
 25 27  0  0  0  0  0  0  0  0999 V2000
    2.1755   -3.9883   -2.4949 C   0  0  0  0  0  0  0  0  0  0  0  0
    1.7554   -5.1740   -1.4542 C   0  0  0  0  0  0  0  0  0  0  0  0
    5.2822   -5.4768   -7.3482 N   0  0  0  0  0  0  0  0  0  0  0  0
    1.6926   -5.0029   -0.1120 C   0  0  0  0  0  0  0  0  0  0  0  0
    0.7517    1.7861   -1.7588 N   0  0  0  0  0  0  0  0  0  0  0  0
    1.3123   -6.1075    0.7985 C   0  0  0  0  0  0  0  0  0  0  0  0
    1.0156   -7.3253    0.2895 C   0  0  0  0  0  0  0  0  0  0  0  0
    1.0698   -7.5276   -1.1395 C   0  0  0  0  0  0  0  0  0  0  0  0
    1.4159   -6.5242   -1.9499 C   0  0  0  0  0  0  0  0  0  0  0  0
    3.0303   -4.3922   -3.8240 C   0  0  0  0  0  0  0  0  0  0  0  0
    4.2768   -3.9166   -4.0250 C   0  0  0  0  0  0  0  0  0  0  0  0
    5.0718   -4.2746   -5.2324 C   0  0  0  0  0  0  0  0  0  0  0  0
    4.5499   -5.1059   -6.1736 C   0  0  0  0  0  0  0  0  0  0  0  0
    3.1888   -5.6356   -5.9664 C   0  0  0  0  0  0  0  0  0  0  0  0
    2.4864   -5.3016   -4.8748 C   0  0  0  0  0  0  0  0  0  0  0  0
    1.7572   -2.4061   -2.2296 C   0  0  0  0  0  0  0  0  0  0  0  0
    2.2196   -1.3405   -3.1848 C   0  0  0  0  0  0  0  0  0  0  0  0
    1.9096   -0.0500   -3.0337 C   0  0  0  0  0  0  0  0  0  0  0  0
    1.0870    0.4006   -1.9049 C   0  0  0  0  0  0  0  0  0  0  0  0
    0.6510   -0.5147   -1.0148 C   0  0  0  0  0  0  0  0  0  0  0  0
    0.9918   -1.9684   -1.1752 C   0  0  0  0  0  0  0  0  0  0  0  0
    6.6941   -5.2727   -7.4643 C   0  0  0  0  0  0  0  0  0  0  0  0
    4.6064   -6.0741   -8.4580 C   0  0  0  0  0  0  0  0  0  0  0  0
    0.9292    2.6947   -2.8548 C   0  0  0  0  0  0  0  0  0  0  0  0
    0.2240    2.3033   -0.5164 C   0  0  0  0  0  0  0  0  0  0  0  0
  1  2  1  0  0  0  0
  1 10  1  0  0  0  0
  1 16  1  0  0  0  0
  2  4  2  0  0  0  0
  2  9  1  0  0  0  0
  4  6  1  0  0  0  0
  6  7  2  0  0  0  0
  7  8  1  0  0  0  0
  8  9  2  0  0  0  0
 10 11  2  0  0  0  0
 10 15  1  0  0  0  0
 11 12  1  0  0  0  0
 12 13  2  0  0  0  0
 13  3  1  0  0  0  0
 13 14  1  0  0  0  0
 14 15  2  0  0  0  0
 16 17  2  0  0  0  0
 16 21  1  0  0  0  0
 17 18  1  0  0  0  0
 18 19  2  0  0  0  0
 19  5  1  0  0  0  0
 19 20  1  0  0  0  0
 20 21  2  0  0  0  0
 22  3  1  0  0  0  0
 23  3  1  0  0  0  0
 24  5  1  0  0  0  0
 25  5  1  0  0  0  0
M  END
>  <CHROM.1>
144.98186704,-117.08246013,177.25989985,15.26474531,15.05231745,2.42625442
-3.39452571,-3.13480687,2.51635327,1.02325064,-0.22840287

>  <Name>
1q8n_lig

>  <RI>
0

>  <Rbt.Current_Directory>
/home/itssahil/PROJECTS/Mol_Feturizer/New_Systems/rnas/1q8n

>  <Rbt.Executable>
rbdock ($Id: //depot/dev/client3/rdock/2013.1/src/exe/rbdock.cxx#4 $)

>  <Rbt.Library>
libRbt.so (2013.1, Build901 2013/11/27)

>  <Rbt.Parameter_File>
/export/apps/rDock/src/rDock_2013.1_src/data/scripts/dock_solv.prm

>  <Rbt.Receptor>
prm/pocket_docking_8.prm

>  <SCORE>
-38.3631

>  <SCORE.INTER>
-38.7863

>  <SCORE.INTER.CONST>
1

>  <SCORE.INTER.POLAR>
0

>  <SCORE.INTER.ROT>
5

>  <SCORE.INTER.SOLV>
10.8597

>  <SCORE.INTER.VDW>
-36.4108

>  <SCORE.INTER.norm>
-1.55145

>  <SCORE.INTRA>
0.246357

>  <SCORE.INTRA.DIHEDRAL>
1.74699

>  <SCORE.INTRA.DIHEDRAL.0>
2.1627

>  <SCORE.INTRA.POLAR>
0

>  <SCORE.INTRA.POLAR.0>
0

>  <SCORE.INTRA.REPUL>
0

>  <SCORE.INTRA.REPUL.0>
0

>  <SCORE.INTRA.SOLV>
0.00827627

>  <SCORE.INTRA.SOLV.lig_0>
-5.95779

>  <SCORE.INTRA.VDW>
-0.631276

>  <SCORE.INTRA.VDW.0>
3.81702

>  <SCORE.INTRA.norm>
0.00985429

>  <SCORE.RESTR>
0.176828

>  <SCORE.RESTR.CAVITY>
0.176828

>  <SCORE.RESTR.norm>
0.00707311

>  <SCORE.SYSTEM>
0

>  <SCORE.SYSTEM.CONST>
0

>  <SCORE.SYSTEM.DIHEDRAL>
0

>  <SCORE.SYSTEM.SOLV>
0

>  <SCORE.SYSTEM.norm>
0

>  <SCORE.heavy>
25

>  <SCORE.norm>
-1.53453

>  <RMSD>
6.886

$$$$
1q8n_lig
 OpenBabel11021811403D
libRbt.so/2013.1/901 2013/11/27
 25 27  0  0  0  0  0  0  0  0999 V2000
    2.2767   -4.0210   -2.5611 C   0  0  0  0  0  0  0  0  0  0  0  0
    1.7998   -5.1679   -1.5015 C   0  0  0  0  0  0  0  0  0  0  0  0
    0.6577    1.6184   -1.5625 N   0  0  0  0  0  0  0  0  0  0  0  0
    1.7121   -4.9613   -0.1657 C   0  0  0  0  0  0  0  0  0  0  0  0
    5.3883   -5.4709   -7.4732 N   0  0  0  0  0  0  0  0  0  0  0  0
    1.2801   -6.0315    0.7626 C   0  0  0  0  0  0  0  0  0  0  0  0
    0.9599   -7.2528    0.2769 C   0  0  0  0  0  0  0  0  0  0  0  0
    1.0400   -7.4925   -1.1451 C   0  0  0  0  0  0  0  0  0  0  0  0
    1.4327   -6.5200   -1.9716 C   0  0  0  0  0  0  0  0  0  0  0  0
    1.8294   -2.4772   -2.2838 C   0  0  0  0  0  0  0  0  0  0  0  0
    1.1021   -2.1442   -1.1972 C   0  0  0  0  0  0  0  0  0  0  0  0
    0.6849   -0.7402   -0.9281 C   0  0  0  0  0  0  0  0  0  0  0  0
    1.0369    0.2547   -1.7858 C   0  0  0  0  0  0  0  0  0  0  0  0
    1.8340   -0.0938   -2.9771 C   0  0  0  0  0  0  0  0  0  0  0  0
    2.1995   -1.3631   -3.2052 C   0  0  0  0  0  0  0  0  0  0  0  0
    3.1916   -4.3905   -3.8935 C   0  0  0  0  0  0  0  0  0  0  0  0
    2.6584   -5.3468   -4.9244 C   0  0  0  0  0  0  0  0  0  0  0  0
    3.3403   -5.6787   -6.0241 C   0  0  0  0  0  0  0  0  0  0  0  0
    4.6704   -5.1161   -6.2849 C   0  0  0  0  0  0  0  0  0  0  0  0
    5.1980   -4.2572   -5.3880 C   0  0  0  0  0  0  0  0  0  0  0  0
    4.4402   -3.8756   -4.1490 C   0  0  0  0  0  0  0  0  0  0  0  0
    0.7850    2.6223   -2.5747 C   0  0  0  0  0  0  0  0  0  0  0  0
    0.1298    2.0196   -0.2953 C   0  0  0  0  0  0  0  0  0  0  0  0
    6.7448   -5.0412   -7.6566 C   0  0  0  0  0  0  0  0  0  0  0  0
    4.7748   -6.2699   -8.5099 C   0  0  0  0  0  0  0  0  0  0  0  0
  1  2  1  0  0  0  0
  1 10  1  0  0  0  0
  1 16  1  0  0  0  0
  2  4  2  0  0  0  0
  2  9  1  0  0  0  0
  4  6  1  0  0  0  0
  6  7  2  0  0  0  0
  7  8  1  0  0  0  0
  8  9  2  0  0  0  0
 10 11  2  0  0  0  0
 10 15  1  0  0  0  0
 11 12  1  0  0  0  0
 12 13  2  0  0  0  0
 13  3  1  0  0  0  0
 13 14  1  0  0  0  0
 14 15  2  0  0  0  0
 16 17  2  0  0  0  0
 16 21  1  0  0  0  0
 17 18  1  0  0  0  0
 18 19  2  0  0  0  0
 19  5  1  0  0  0  0
 19 20  1  0  0  0  0
 20 21  2  0  0  0  0
 22  3  1  0  0  0  0
 23  3  1  0  0  0  0
 24  5  1  0  0  0  0
 25  5  1  0  0  0  0
M  END
>  <CHROM.1>
-36.31150218,1.06507118,60.18719952,-167.21317801,-173.01321858,2.46539386
-3.43579248,-3.14500477,2.58367937,1.01353144,-0.21383016

>  <Name>
1q8n_lig

>  <RI>
0

>  <Rbt.Current_Directory>
/home/itssahil/PROJECTS/Mol_Feturizer/New_Systems/rnas/1q8n

>  <Rbt.Executable>
rbdock ($Id: //depot/dev/client3/rdock/2013.1/src/exe/rbdock.cxx#4 $)

>  <Rbt.Library>
libRbt.so (2013.1, Build901 2013/11/27)

>  <Rbt.Parameter_File>
/export/apps/rDock/src/rDock_2013.1_src/data/scripts/dock_solv.prm

>  <Rbt.Receptor>
prm/blind_docking_40.prm

>  <SCORE>
-38.0165

>  <SCORE.INTER>
-39.1968

>  <SCORE.INTER.CONST>
1

>  <SCORE.INTER.POLAR>
0

>  <SCORE.INTER.ROT>
5

>  <SCORE.INTER.SOLV>
10.5554

>  <SCORE.INTER.VDW>
-36.583

>  <SCORE.INTER.norm>
-1.56787

>  <SCORE.INTRA>
0.432106

>  <SCORE.INTRA.DIHEDRAL>
0.813767

>  <SCORE.INTRA.DIHEDRAL.0>
2.1627

>  <SCORE.INTRA.POLAR>
0

>  <SCORE.INTRA.POLAR.0>
0

>  <SCORE.INTRA.REPUL>
0

>  <SCORE.INTRA.REPUL.0>
0

>  <SCORE.INTRA.SOLV>
0.0135363

>  <SCORE.INTRA.SOLV.lig_0>
-5.95779

>  <SCORE.INTRA.VDW>
0.0184548

>  <SCORE.INTRA.VDW.0>
3.81702

>  <SCORE.INTRA.norm>
0.0172843

>  <SCORE.RESTR>
0.748235

>  <SCORE.RESTR.CAVITY>
0.748235

>  <SCORE.RESTR.norm>
0.0299294

>  <SCORE.SYSTEM>
0

>  <SCORE.SYSTEM.CONST>
0

>  <SCORE.SYSTEM.DIHEDRAL>
0

>  <SCORE.SYSTEM.SOLV>
0

>  <SCORE.SYSTEM.norm>
0

>  <SCORE.heavy>
25

>  <SCORE.norm>
-1.52066

>  <RMSD>
6.887

$$$$
1q8n_lig
 OpenBabel11021811413D
libRbt.so/2013.1/901 2013/11/27
 25 27  0  0  0  0  0  0  0  0999 V2000
    2.1959   -3.9860   -2.5234 C   0  0  0  0  0  0  0  0  0  0  0  0
    1.7601   -5.1741   -1.4919 C   0  0  0  0  0  0  0  0  0  0  0  0
    5.3436   -5.4691   -7.3519 N   0  0  0  0  0  0  0  0  0  0  0  0
    1.6786   -5.0065   -0.1502 C   0  0  0  0  0  0  0  0  0  0  0  0
    0.7884    1.7913   -1.7783 N   0  0  0  0  0  0  0  0  0  0  0  0
    1.2844   -6.1132    0.7518 C   0  0  0  0  0  0  0  0  0  0  0  0
    0.9937   -7.3293    0.2353 C   0  0  0  0  0  0  0  0  0  0  0  0
    1.0677   -7.5278   -1.1933 C   0  0  0  0  0  0  0  0  0  0  0  0
    1.4262   -6.5226   -1.9960 C   0  0  0  0  0  0  0  0  0  0  0  0
    3.0619   -4.3883   -3.8457 C   0  0  0  0  0  0  0  0  0  0  0  0
    4.2972   -3.8865   -4.0520 C   0  0  0  0  0  0  0  0  0  0  0  0
    5.1021   -4.2427   -5.2533 C   0  0  0  0  0  0  0  0  0  0  0  0
    4.6011   -5.0990   -6.1834 C   0  0  0  0  0  0  0  0  0  0  0  0
    3.2525   -5.6575   -5.9703 C   0  0  0  0  0  0  0  0  0  0  0  0
    2.5409   -5.3248   -4.8843 C   0  0  0  0  0  0  0  0  0  0  0  0
    1.7824   -2.4030   -2.2555 C   0  0  0  0  0  0  0  0  0  0  0  0
    2.2414   -1.3382   -3.2132 C   0  0  0  0  0  0  0  0  0  0  0  0
    1.9350   -0.0471   -3.0602 C   0  0  0  0  0  0  0  0  0  0  0  0
    1.1200    0.4051   -1.9266 C   0  0  0  0  0  0  0  0  0  0  0  0
    0.6873   -0.5094   -1.0339 C   0  0  0  0  0  0  0  0  0  0  0  0
    1.0242   -1.9637   -1.1965 C   0  0  0  0  0  0  0  0  0  0  0  0
    6.7487   -5.2250   -7.4731 C   0  0  0  0  0  0  0  0  0  0  0  0
    4.6854   -6.1064   -8.4500 C   0  0  0  0  0  0  0  0  0  0  0  0
    0.2826    2.2865   -0.5304 C   0  0  0  0  0  0  0  0  0  0  0  0
    0.9578    2.7241   -2.8695 C   0  0  0  0  0  0  0  0  0  0  0  0
  1  2  1  0  0  0  0
  1 10  1  0  0  0  0
  1 16  1  0  0  0  0
  2  4  2  0  0  0  0
  2  9  1  0  0  0  0
  4  6  1  0  0  0  0
  6  7  2  0  0  0  0
  7  8  1  0  0  0  0
  8  9  2  0  0  0  0
 10 11  2  0  0  0  0
 10 15  1  0  0  0  0
 11 12  1  0  0  0  0
 12 13  2  0  0  0  0
 13  3  1  0  0  0  0
 13 14  1  0  0  0  0
 14 15  2  0  0  0  0
 16 17  2  0  0  0  0
 16 21  1  0  0  0  0
 17 18  1  0  0  0  0
 18 19  2  0  0  0  0
 19  5  1  0  0  0  0
 19 20  1  0  0  0  0
 20 21  2  0  0  0  0
 22  3  1  0  0  0  0
 23  3  1  0  0  0  0
 24  5  1  0  0  0  0
 25  5  1  0  0  0  0
M  END
>  <CHROM.1>
145.31439354,-119.06449141,178.20508847,14.80701854,-164.81344983,2.45559277
-3.39116171,-3.15808671,2.50163976,1.01484251,-0.21229075

>  <Name>
1q8n_lig

>  <RI>
0

>  <Rbt.Current_Directory>
/home/itssahil/PROJECTS/Mol_Feturizer/New_Systems/rnas/1q8n

>  <Rbt.Executable>
rbdock ($Id: //depot/dev/client3/rdock/2013.1/src/exe/rbdock.cxx#4 $)

>  <Rbt.Library>
libRbt.so (2013.1, Build901 2013/11/27)

>  <Rbt.Parameter_File>
/export/apps/rDock/src/rDock_2013.1_src/data/scripts/dock_solv.prm

>  <Rbt.Receptor>
prm/pocket_docking_8.prm

>  <SCORE>
-38.6255

>  <SCORE.INTER>
-39.1368

>  <SCORE.INTER.CONST>
1

>  <SCORE.INTER.POLAR>
0

>  <SCORE.INTER.ROT>
5

>  <SCORE.INTER.SOLV>
10.819

>  <SCORE.INTER.VDW>
-36.6309

>  <SCORE.INTER.norm>
-1.56547

>  <SCORE.INTRA>
0.314151

>  <SCORE.INTRA.DIHEDRAL>
1.711

>  <SCORE.INTRA.DIHEDRAL.0>
2.1627

>  <SCORE.INTRA.POLAR>
0

>  <SCORE.INTRA.POLAR.0>
0

>  <SCORE.INTRA.REPUL>
0

>  <SCORE.INTRA.REPUL.0>
0

>  <SCORE.INTRA.SOLV>
0.0111612

>  <SCORE.INTRA.SOLV.lig_0>
-5.95779

>  <SCORE.INTRA.VDW>
-0.546932

>  <SCORE.INTRA.VDW.0>
3.81702

>  <SCORE.INTRA.norm>
0.012566

>  <SCORE.RESTR>
0.197219

>  <SCORE.RESTR.CAVITY>
0.197219

>  <SCORE.RESTR.norm>
0.00788877

>  <SCORE.SYSTEM>
0

>  <SCORE.SYSTEM.CONST>
0

>  <SCORE.SYSTEM.DIHEDRAL>
0

>  <SCORE.SYSTEM.SOLV>
0

>  <SCORE.SYSTEM.norm>
0

>  <SCORE.heavy>
25

>  <SCORE.norm>
-1.54502

>  <RMSD>
6.895

$$$$
1q8n_lig
 OpenBabel11021811403D
libRbt.so/2013.1/901 2013/11/27
 25 27  0  0  0  0  0  0  0  0999 V2000
    2.2478   -4.0585   -2.5772 C   0  0  0  0  0  0  0  0  0  0  0  0
    1.7845   -5.2769   -1.5941 C   0  0  0  0  0  0  0  0  0  0  0  0
    5.4915   -5.3743   -7.3905 N   0  0  0  0  0  0  0  0  0  0  0  0
    1.4877   -6.5224   -2.0363 C   0  0  0  0  0  0  0  0  0  0  0  0
    0.8928    1.7052   -1.6517 N   0  0  0  0  0  0  0  0  0  0  0  0
    1.0652   -7.5989   -1.1107 C   0  0  0  0  0  0  0  0  0  0  0  0
    0.9704   -7.3458    0.2148 C   0  0  0  0  0  0  0  0  0  0  0  0
    1.2888   -6.0263    0.7083 C   0  0  0  0  0  0  0  0  0  0  0  0
    1.6667   -5.0637   -0.1365 C   0  0  0  0  0  0  0  0  0  0  0  0
    3.1336   -4.4234   -3.8971 C   0  0  0  0  0  0  0  0  0  0  0  0
    2.6954   -5.3165   -4.8085 C   0  0  0  0  0  0  0  0  0  0  0  0
    3.4907   -5.6619   -6.0193 C   0  0  0  0  0  0  0  0  0  0  0  0
    4.6962   -5.0716   -6.2375 C   0  0  0  0  0  0  0  0  0  0  0  0
    5.1875   -4.0913   -5.2508 C   0  0  0  0  0  0  0  0  0  0  0  0
    4.4596   -3.7934   -4.1654 C   0  0  0  0  0  0  0  0  0  0  0  0
    1.8422   -2.4819   -2.2631 C   0  0  0  0  0  0  0  0  0  0  0  0
    2.4207   -1.3792   -3.1063 C   0  0  0  0  0  0  0  0  0  0  0  0
    2.1274   -0.0905   -2.9120 C   0  0  0  0  0  0  0  0  0  0  0  0
    1.2087    0.3208   -1.8441 C   0  0  0  0  0  0  0  0  0  0  0  0
    0.6663   -0.6291   -1.0542 C   0  0  0  0  0  0  0  0  0  0  0  0
    0.9874   -2.0809   -1.2642 C   0  0  0  0  0  0  0  0  0  0  0  0
    6.7683   -4.7689   -7.6180 C   0  0  0  0  0  0  0  0  0  0  0  0
    5.0199   -6.3100   -8.3637 C   0  0  0  0  0  0  0  0  0  0  0  0
    0.7104    2.5712   -2.7809 C   0  0  0  0  0  0  0  0  0  0  0  0
    0.7440    2.2637   -0.3267 C   0  0  0  0  0  0  0  0  0  0  0  0
  1  2  1  0  0  0  0
  1 10  1  0  0  0  0
  1 16  1  0  0  0  0
  2  4  2  0  0  0  0
  2  9  1  0  0  0  0
  4  6  1  0  0  0  0
  6  7  2  0  0  0  0
  7  8  1  0  0  0  0
  8  9  2  0  0  0  0
 10 11  2  0  0  0  0
 10 15  1  0  0  0  0
 11 12  1  0  0  0  0
 12 13  2  0  0  0  0
 13  3  1  0  0  0  0
 13 14  1  0  0  0  0
 14 15  2  0  0  0  0
 16 17  2  0  0  0  0
 16 21  1  0  0  0  0
 17 18  1  0  0  0  0
 18 19  2  0  0  0  0
 19  5  1  0  0  0  0
 19 20  1  0  0  0  0
 20 21  2  0  0  0  0
 22  3  1  0  0  0  0
 23  3  1  0  0  0  0
 24  5  1  0  0  0  0
 25  5  1  0  0  0  0
M  END
>  <CHROM.1>
-33.42791438,55.59639399,173.02661971,-179.22283916,38.77438932,2.54523066
-3.40523183,-3.14771416,0.63242364,-1.00077100,2.97329341

>  <Name>
1q8n_lig

>  <RI>
0

>  <Rbt.Current_Directory>
/home/itssahil/PROJECTS/Mol_Feturizer/New_Systems/rnas/1q8n

>  <Rbt.Executable>
rbdock ($Id: //depot/dev/client3/rdock/2013.1/src/exe/rbdock.cxx#4 $)

>  <Rbt.Library>
libRbt.so (2013.1, Build901 2013/11/27)

>  <Rbt.Parameter_File>
/export/apps/rDock/src/rDock_2013.1_src/data/scripts/dock_solv.prm

>  <Rbt.Receptor>
prm/blind_docking_60.prm

>  <SCORE>
-33.5481

>  <SCORE.INTER>
-35.1723

>  <SCORE.INTER.CONST>
1

>  <SCORE.INTER.POLAR>
0

>  <SCORE.INTER.ROT>
5

>  <SCORE.INTER.SOLV>
10.5838

>  <SCORE.INTER.VDW>
-33.9095

>  <SCORE.INTER.norm>
-1.40689

>  <SCORE.INTRA>
0.984875

>  <SCORE.INTRA.DIHEDRAL>
5.01717

>  <SCORE.INTRA.DIHEDRAL.0>
2.1627

>  <SCORE.INTRA.POLAR>
0

>  <SCORE.INTRA.POLAR.0>
0

>  <SCORE.INTRA.REPUL>
0

>  <SCORE.INTRA.REPUL.0>
0

>  <SCORE.INTRA.SOLV>
0.0168711

>  <SCORE.INTRA.SOLV.lig_0>
-5.95779

>  <SCORE.INTRA.VDW>
-1.53215

>  <SCORE.INTRA.VDW.0>
3.81702

>  <SCORE.INTRA.norm>
0.039395

>  <SCORE.RESTR>
0.639308

>  <SCORE.RESTR.CAVITY>
0.639308

>  <SCORE.RESTR.norm>
0.0255723

>  <SCORE.SYSTEM>
0

>  <SCORE.SYSTEM.CONST>
0

>  <SCORE.SYSTEM.DIHEDRAL>
0

>  <SCORE.SYSTEM.SOLV>
0

>  <SCORE.SYSTEM.norm>
0

>  <SCORE.heavy>
25

>  <SCORE.norm>
-1.34192

>  <RMSD>
6.926

$$$$
1q8n_lig
 OpenBabel11021811413D
libRbt.so/2013.1/901 2013/11/27
 25 27  0  0  0  0  0  0  0  0999 V2000
    2.2439   -4.1169   -2.6965 C   0  0  0  0  0  0  0  0  0  0  0  0
    1.8139   -5.3004   -1.6573 C   0  0  0  0  0  0  0  0  0  0  0  0
    5.3525   -5.6227   -7.5432 N   0  0  0  0  0  0  0  0  0  0  0  0
    1.4587   -6.5473   -2.0499 C   0  0  0  0  0  0  0  0  0  0  0  0
    0.7077    1.5521   -1.5071 N   0  0  0  0  0  0  0  0  0  0  0  0
    1.0694   -7.5913   -1.0740 C   0  0  0  0  0  0  0  0  0  0  0  0
    1.0654   -7.3063    0.2484 C   0  0  0  0  0  0  0  0  0  0  0  0
    1.4472   -5.9850    0.6890 C   0  0  0  0  0  0  0  0  0  0  0  0
    1.7944   -5.0517   -0.2007 C   0  0  0  0  0  0  0  0  0  0  0  0
    3.0993   -4.5256   -4.0237 C   0  0  0  0  0  0  0  0  0  0  0  0
    4.3577   -4.0762   -4.2105 C   0  0  0  0  0  0  0  0  0  0  0  0
    5.1534   -4.4391   -5.4159 C   0  0  0  0  0  0  0  0  0  0  0  0
    4.6200   -5.2481   -6.3699 C   0  0  0  0  0  0  0  0  0  0  0  0
    3.2458   -5.7491   -6.1784 C   0  0  0  0  0  0  0  0  0  0  0  0
    2.5429   -5.4111   -5.0883 C   0  0  0  0  0  0  0  0  0  0  0  0
    1.8349   -2.5323   -2.4316 C   0  0  0  0  0  0  0  0  0  0  0  0
    1.1374   -2.1434   -1.1572 C   0  0  0  0  0  0  0  0  0  0  0  0
    0.7896   -0.8841   -0.8785 C   0  0  0  0  0  0  0  0  0  0  0  0
    1.0757    0.2034   -1.8214 C   0  0  0  0  0  0  0  0  0  0  0  0
    1.6947   -0.0924   -2.9833 C   0  0  0  0  0  0  0  0  0  0  0  0
    2.0918   -1.5040   -3.3068 C   0  0  0  0  0  0  0  0  0  0  0  0
    4.7346   -6.2883   -8.6494 C   0  0  0  0  0  0  0  0  0  0  0  0
    6.7497   -5.3338   -7.6412 C   0  0  0  0  0  0  0  0  0  0  0  0
    0.7736    2.5746   -2.5114 C   0  0  0  0  0  0  0  0  0  0  0  0
    0.2577    1.9179   -0.1831 C   0  0  0  0  0  0  0  0  0  0  0  0
  1  2  1  0  0  0  0
  1 10  1  0  0  0  0
  1 16  1  0  0  0  0
  2  4  2  0  0  0  0
  2  9  1  0  0  0  0
  4  6  1  0  0  0  0
  6  7  2  0  0  0  0
  7  8  1  0  0  0  0
  8  9  2  0  0  0  0
 10 11  2  0  0  0  0
 10 15  1  0  0  0  0
 11 12  1  0  0  0  0
 12 13  2  0  0  0  0
 13  3  1  0  0  0  0
 13 14  1  0  0  0  0
 14 15  2  0  0  0  0
 16 17  2  0  0  0  0
 16 21  1  0  0  0  0
 17 18  1  0  0  0  0
 18 19  2  0  0  0  0
 19  5  1  0  0  0  0
 19 20  1  0  0  0  0
 20 21  2  0  0  0  0
 22  3  1  0  0  0  0
 23  3  1  0  0  0  0
 24  5  1  0  0  0  0
 25  5  1  0  0  0  0
M  END
>  <CHROM.1>
-36.42169360,-115.93652487,4.56117879,-169.61960836,-169.21060638,2.46400833
-3.52845139,-3.19123693,0.55200213,-1.03520726,2.91648903

>  <Name>
1q8n_lig

>  <RI>
0

>  <Rbt.Current_Directory>
/home/itssahil/PROJECTS/Mol_Feturizer/New_Systems/rnas/1q8n

>  <Rbt.Executable>
rbdock ($Id: //depot/dev/client3/rdock/2013.1/src/exe/rbdock.cxx#4 $)

>  <Rbt.Library>
libRbt.so (2013.1, Build901 2013/11/27)

>  <Rbt.Parameter_File>
/export/apps/rDock/src/rDock_2013.1_src/data/scripts/dock_solv.prm

>  <Rbt.Receptor>
prm/pocket_docking_8.prm

>  <SCORE>
-40.5609

>  <SCORE.INTER>
-40.9942

>  <SCORE.INTER.CONST>
1

>  <SCORE.INTER.POLAR>
0

>  <SCORE.INTER.ROT>
5

>  <SCORE.INTER.SOLV>
10.7518

>  <SCORE.INTER.VDW>
-37.8467

>  <SCORE.INTER.norm>
-1.63977

>  <SCORE.INTRA>
0.229635

>  <SCORE.INTRA.DIHEDRAL>
0.860665

>  <SCORE.INTRA.DIHEDRAL.0>
2.1627

>  <SCORE.INTRA.POLAR>
0

>  <SCORE.INTRA.POLAR.0>
0

>  <SCORE.INTRA.REPUL>
0

>  <SCORE.INTRA.REPUL.0>
0

>  <SCORE.INTRA.SOLV>
0.0108536

>  <SCORE.INTRA.SOLV.lig_0>
-5.95779

>  <SCORE.INTRA.VDW>
-0.206125

>  <SCORE.INTRA.VDW.0>
3.81702

>  <SCORE.INTRA.norm>
0.00918539

>  <SCORE.RESTR>
0.203634

>  <SCORE.RESTR.CAVITY>
0.203634

>  <SCORE.RESTR.norm>
0.00814536

>  <SCORE.SYSTEM>
0

>  <SCORE.SYSTEM.CONST>
0

>  <SCORE.SYSTEM.DIHEDRAL>
0

>  <SCORE.SYSTEM.SOLV>
0

>  <SCORE.SYSTEM.norm>
0

>  <SCORE.heavy>
25

>  <SCORE.norm>
-1.62244

>  <RMSD>
6.934

$$$$
1q8n_lig
 OpenBabel11021811403D
libRbt.so/2013.1/901 2013/11/27
 25 27  0  0  0  0  0  0  0  0999 V2000
    1.6683   -3.4189    0.4092 C   0  0  0  0  0  0  0  0  0  0  0  0
    1.7217   -4.5618   -0.7554 C   0  0  0  0  0  0  0  0  0  0  0  0
    2.8749   -5.0383    6.0077 N   0  0  0  0  0  0  0  0  0  0  0  0
    2.2000   -4.3364   -2.0026 C   0  0  0  0  0  0  0  0  0  0  0  0
    0.2276    2.3094   -0.6024 N   0  0  0  0  0  0  0  0  0  0  0  0
    2.2254   -5.4004   -3.0327 C   0  0  0  0  0  0  0  0  0  0  0  0
    1.7631   -6.6360   -2.7332 C   0  0  0  0  0  0  0  0  0  0  0  0
    1.2550   -6.8997   -1.4072 C   0  0  0  0  0  0  0  0  0  0  0  0
    1.2356   -5.9315   -0.4878 C   0  0  0  0  0  0  0  0  0  0  0  0
    1.9937   -3.8628    1.9445 C   0  0  0  0  0  0  0  0  0  0  0  0
    1.0318   -4.3657    2.7459 C   0  0  0  0  0  0  0  0  0  0  0  0
    1.3107   -4.7761    4.1501 C   0  0  0  0  0  0  0  0  0  0  0  0
    2.5642   -4.6533    4.6628 C   0  0  0  0  0  0  0  0  0  0  0  0
    3.6269   -4.1070    3.7977 C   0  0  0  0  0  0  0  0  0  0  0  0
    3.3581   -3.7408    2.5366 C   0  0  0  0  0  0  0  0  0  0  0  0
    1.2940   -1.8407    0.0661 C   0  0  0  0  0  0  0  0  0  0  0  0
    0.4636   -1.0423    1.0329 C   0  0  0  0  0  0  0  0  0  0  0  0
    0.1353    0.2351    0.8210 C   0  0  0  0  0  0  0  0  0  0  0  0
    0.5767    0.9359   -0.3906 C   0  0  0  0  0  0  0  0  0  0  0  0
    1.3194    0.2632   -1.2941 C   0  0  0  0  0  0  0  0  0  0  0  0
    1.6958   -1.1725   -1.0659 C   0  0  0  0  0  0  0  0  0  0  0  0
    1.9608   -5.7823    6.8197 C   0  0  0  0  0  0  0  0  0  0  0  0
    4.1340   -4.6822    6.5848 C   0  0  0  0  0  0  0  0  0  0  0  0
   -0.5562    3.0166    0.3692 C   0  0  0  0  0  0  0  0  0  0  0  0
    0.6559    3.0183   -1.7871 C   0  0  0  0  0  0  0  0  0  0  0  0
  1  2  1  0  0  0  0
  1 10  1  0  0  0  0
  1 16  1  0  0  0  0
  2  4  2  0  0  0  0
  2  9  1  0  0  0  0
  4  6  1  0  0  0  0
  6  7  2  0  0  0  0
  7  8  1  0  0  0  0
  8  9  2  0  0  0  0
 10 11  2  0  0  0  0
 10 15  1  0  0  0  0
 11 12  1  0  0  0  0
 12 13  2  0  0  0  0
 13  3  1  0  0  0  0
 13 14  1  0  0  0  0
 14 15  2  0  0  0  0
 16 17  2  0  0  0  0
 16 21  1  0  0  0  0
 17 18  1  0  0  0  0
 18 19  2  0  0  0  0
 19  5  1  0  0  0  0
 19 20  1  0  0  0  0
 20 21  2  0  0  0  0
 22  3  1  0  0  0  0
 23  3  1  0  0  0  0
 24  5  1  0  0  0  0
 25  5  1  0  0  0  0
M  END
>  <CHROM.1>
-142.15812306,-85.44513820,142.67808656,10.98402893,0.09593834,1.62700153
-2.84748346,1.11202587,-3.00704738,-1.32408701,0.99976172

>  <Name>
1q8n_lig

>  <RI>
0

>  <Rbt.Current_Directory>
/home/itssahil/PROJECTS/Mol_Feturizer/New_Systems/rnas/1q8n

>  <Rbt.Executable>
rbdock ($Id: //depot/dev/client3/rdock/2013.1/src/exe/rbdock.cxx#4 $)

>  <Rbt.Library>
libRbt.so (2013.1, Build901 2013/11/27)

>  <Rbt.Parameter_File>
/export/apps/rDock/src/rDock_2013.1_src/data/scripts/dock_solv.prm

>  <Rbt.Receptor>
prm/blind_docking_40.prm

>  <SCORE>
-44.4441

>  <SCORE.INTER>
-44.3746

>  <SCORE.INTER.CONST>
1

>  <SCORE.INTER.POLAR>
0

>  <SCORE.INTER.ROT>
5

>  <SCORE.INTER.SOLV>
10.6489

>  <SCORE.INTER.VDW>
-40.066

>  <SCORE.INTER.norm>
-1.77498

>  <SCORE.INTRA>
-0.069458

>  <SCORE.INTRA.DIHEDRAL>
0.460249

>  <SCORE.INTRA.DIHEDRAL.0>
2.1627

>  <SCORE.INTRA.POLAR>
0

>  <SCORE.INTRA.POLAR.0>
0

>  <SCORE.INTRA.REPUL>
0

>  <SCORE.INTRA.REPUL.0>
0

>  <SCORE.INTRA.SOLV>
-0.0257641

>  <SCORE.INTRA.SOLV.lig_0>
-5.95779

>  <SCORE.INTRA.VDW>
-0.286701

>  <SCORE.INTRA.VDW.0>
3.81702

>  <SCORE.INTRA.norm>
-0.00277832

>  <SCORE.RESTR>
0

>  <SCORE.RESTR.CAVITY>
0

>  <SCORE.RESTR.norm>
0

>  <SCORE.SYSTEM>
0

>  <SCORE.SYSTEM.CONST>
0

>  <SCORE.SYSTEM.DIHEDRAL>
0

>  <SCORE.SYSTEM.SOLV>
0

>  <SCORE.SYSTEM.norm>
0

>  <SCORE.heavy>
25

>  <SCORE.norm>
-1.77776

>  <RMSD>
6.940

$$$$
1q8n_lig
 OpenBabel11021811403D
libRbt.so/2013.1/901 2013/11/27
 25 27  0  0  0  0  0  0  0  0999 V2000
    1.5665   -2.9870   -0.4458 C   0  0  0  0  0  0  0  0  0  0  0  0
    1.7348   -4.2814   -1.4264 C   0  0  0  0  0  0  0  0  0  0  0  0
    0.3338    2.2827   -2.9223 N   0  0  0  0  0  0  0  0  0  0  0  0
    2.2307   -4.2064   -2.6847 C   0  0  0  0  0  0  0  0  0  0  0  0
    2.3281   -3.6269    5.4638 N   0  0  0  0  0  0  0  0  0  0  0  0
    2.3615   -5.4053   -3.5446 C   0  0  0  0  0  0  0  0  0  0  0  0
    1.9807   -6.6146   -3.0729 C   0  0  0  0  0  0  0  0  0  0  0  0
    1.4555   -6.7180   -1.7315 C   0  0  0  0  0  0  0  0  0  0  0  0
    1.3407   -5.6295   -0.9667 C   0  0  0  0  0  0  0  0  0  0  0  0
    1.2237   -1.5430   -1.1223 C   0  0  0  0  0  0  0  0  0  0  0  0
    0.1624   -0.8152   -0.7171 C   0  0  0  0  0  0  0  0  0  0  0  0
   -0.1656    0.5050   -1.3233 C   0  0  0  0  0  0  0  0  0  0  0  0
    0.6135    1.0156   -2.3141 C   0  0  0  0  0  0  0  0  0  0  0  0
    1.7788    0.2321   -2.7661 C   0  0  0  0  0  0  0  0  0  0  0  0
    2.0586   -0.9553   -2.2108 C   0  0  0  0  0  0  0  0  0  0  0  0
    1.7362   -3.1106    1.1988 C   0  0  0  0  0  0  0  0  0  0  0  0
    2.4189   -4.3123    1.7915 C   0  0  0  0  0  0  0  0  0  0  0  0
    2.5962   -4.4681    3.1063 C   0  0  0  0  0  0  0  0  0  0  0  0
    2.1229   -3.4544    4.0562 C   0  0  0  0  0  0  0  0  0  0  0  0
    1.4978   -2.3590    3.5769 C   0  0  0  0  0  0  0  0  0  0  0  0
    1.2943   -2.1723    2.1009 C   0  0  0  0  0  0  0  0  0  0  0  0
   -0.2621    2.3927   -4.2189 C   0  0  0  0  0  0  0  0  0  0  0  0
    0.6490    3.4958   -2.2337 C   0  0  0  0  0  0  0  0  0  0  0  0
    2.5132   -4.9388    6.0143 C   0  0  0  0  0  0  0  0  0  0  0  0
    2.3603   -2.4945    6.3616 C   0  0  0  0  0  0  0  0  0  0  0  0
  1  2  1  0  0  0  0
  1 10  1  0  0  0  0
  1 16  1  0  0  0  0
  2  4  2  0  0  0  0
  2  9  1  0  0  0  0
  4  6  1  0  0  0  0
  6  7  2  0  0  0  0
  7  8  1  0  0  0  0
  8  9  2  0  0  0  0
 10 11  2  0  0  0  0
 10 15  1  0  0  0  0
 11 12  1  0  0  0  0
 12 13  2  0  0  0  0
 13  3  1  0  0  0  0
 13 14  1  0  0  0  0
 14 15  2  0  0  0  0
 16 17  2  0  0  0  0
 16 21  1  0  0  0  0
 17 18  1  0  0  0  0
 18 19  2  0  0  0  0
 19  5  1  0  0  0  0
 19 20  1  0  0  0  0
 20 21  2  0  0  0  0
 22  3  1  0  0  0  0
 23  3  1  0  0  0  0
 24  5  1  0  0  0  0
 25  5  1  0  0  0  0
M  END
>  <CHROM.1>
32.50019961,126.06803026,17.14993203,-103.52821564,-23.76846066,1.51164050
-2.34908467,0.04132770,-2.62988342,-1.36140181,1.14462879

>  <Name>
1q8n_lig

>  <RI>
0

>  <Rbt.Current_Directory>
/home/itssahil/PROJECTS/Mol_Feturizer/New_Systems/rnas/1q8n

>  <Rbt.Executable>
rbdock ($Id: //depot/dev/client3/rdock/2013.1/src/exe/rbdock.cxx#4 $)

>  <Rbt.Library>
libRbt.so (2013.1, Build901 2013/11/27)

>  <Rbt.Parameter_File>
/export/apps/rDock/src/rDock_2013.1_src/data/scripts/dock_solv.prm

>  <Rbt.Receptor>
prm/blind_docking_60.prm

>  <SCORE>
-36.2265

>  <SCORE.INTER>
-39.9554

>  <SCORE.INTER.CONST>
1

>  <SCORE.INTER.POLAR>
0

>  <SCORE.INTER.ROT>
5

>  <SCORE.INTER.SOLV>
8.55005

>  <SCORE.INTER.VDW>
-36.4203

>  <SCORE.INTER.norm>
-1.59822

>  <SCORE.INTRA>
3.45478

>  <SCORE.INTRA.DIHEDRAL>
14.1766

>  <SCORE.INTRA.DIHEDRAL.0>
2.1627

>  <SCORE.INTRA.POLAR>
0

>  <SCORE.INTRA.POLAR.0>
0

>  <SCORE.INTRA.REPUL>
0

>  <SCORE.INTRA.REPUL.0>
0

>  <SCORE.INTRA.SOLV>
0.0168164

>  <SCORE.INTRA.SOLV.lig_0>
-5.95779

>  <SCORE.INTRA.VDW>
-3.64192

>  <SCORE.INTRA.VDW.0>
3.81702

>  <SCORE.INTRA.norm>
0.138191

>  <SCORE.RESTR>
0.274169

>  <SCORE.RESTR.CAVITY>
0.274169

>  <SCORE.RESTR.norm>
0.0109668

>  <SCORE.SYSTEM>
0

>  <SCORE.SYSTEM.CONST>
0

>  <SCORE.SYSTEM.DIHEDRAL>
0

>  <SCORE.SYSTEM.SOLV>
0

>  <SCORE.SYSTEM.norm>
0

>  <SCORE.heavy>
25

>  <SCORE.norm>
-1.44906

>  <RMSD>
6.944

$$$$
1q8n_lig
 OpenBabel11021811413D
libRbt.so/2013.1/901 2013/11/27
 25 27  0  0  0  0  0  0  0  0999 V2000
    0.3210   -1.1682    2.8771 C   0  0  0  0  0  0  0  0  0  0  0  0
    0.9644   -2.6597    2.7127 C   0  0  0  0  0  0  0  0  0  0  0  0
    0.7464    2.6272   -1.6874 N   0  0  0  0  0  0  0  0  0  0  0  0
    0.3137   -3.6942    2.1284 C   0  0  0  0  0  0  0  0  0  0  0  0
   -2.4889    0.3069    7.9606 N   0  0  0  0  0  0  0  0  0  0  0  0
    0.9318   -5.0345    2.0044 C   0  0  0  0  0  0  0  0  0  0  0  0
    2.1798   -5.2452    2.4818 C   0  0  0  0  0  0  0  0  0  0  0  0
    2.8940   -4.1540    3.1025 C   0  0  0  0  0  0  0  0  0  0  0  0
    2.3252   -2.9506    3.2100 C   0  0  0  0  0  0  0  0  0  0  0  0
    0.4416   -0.1310    1.6242 C   0  0  0  0  0  0  0  0  0  0  0  0
    1.1389   -0.4525    0.5148 C   0  0  0  0  0  0  0  0  0  0  0  0
    1.2597    0.4819   -0.6386 C   0  0  0  0  0  0  0  0  0  0  0  0
    0.6565    1.7000   -0.5985 C   0  0  0  0  0  0  0  0  0  0  0  0
   -0.1113    2.0647    0.6071 C   0  0  0  0  0  0  0  0  0  0  0  0
   -0.2083    1.2124    1.6370 C   0  0  0  0  0  0  0  0  0  0  0  0
   -0.4396   -0.6951    4.2723 C   0  0  0  0  0  0  0  0  0  0  0  0
   -1.2980   -1.6743    5.0246 C   0  0  0  0  0  0  0  0  0  0  0  0
   -1.9296   -1.3599    6.1588 C   0  0  0  0  0  0  0  0  0  0  0  0
   -1.8156   -0.0161    6.7377 C   0  0  0  0  0  0  0  0  0  0  0  0
   -1.0620    0.9028    6.0988 C   0  0  0  0  0  0  0  0  0  0  0  0
   -0.3461    0.5604    4.8240 C   0  0  0  0  0  0  0  0  0  0  0  0
    0.5896    4.0380   -1.5042 C   0  0  0  0  0  0  0  0  0  0  0  0
    1.0017    2.1564   -3.0134 C   0  0  0  0  0  0  0  0  0  0  0  0
   -2.4145    1.6339    8.5008 C   0  0  0  0  0  0  0  0  0  0  0  0
   -3.2607   -0.6838    8.6764 C   0  0  0  0  0  0  0  0  0  0  0  0
  1  2  1  0  0  0  0
  1 10  1  0  0  0  0
  1 16  1  0  0  0  0
  2  4  2  0  0  0  0
  2  9  1  0  0  0  0
  4  6  1  0  0  0  0
  6  7  2  0  0  0  0
  7  8  1  0  0  0  0
  8  9  2  0  0  0  0
 10 11  2  0  0  0  0
 10 15  1  0  0  0  0
 11 12  1  0  0  0  0
 12 13  2  0  0  0  0
 13  3  1  0  0  0  0
 13 14  1  0  0  0  0
 14 15  2  0  0  0  0
 16 17  2  0  0  0  0
 16 21  1  0  0  0  0
 17 18  1  0  0  0  0
 18 19  2  0  0  0  0
 19  5  1  0  0  0  0
 19 20  1  0  0  0  0
 20 21  2  0  0  0  0
 22  3  1  0  0  0  0
 23  3  1  0  0  0  0
 24  5  1  0  0  0  0
 25  5  1  0  0  0  0
M  END
>  <CHROM.1>
-84.37334207,-4.85865314,-38.06018463,-155.48282821,-177.82056094,-0.01417996
-0.42413193,2.95486195,-0.86941403,-1.05233547,2.42729900

>  <Name>
1q8n_lig

>  <RI>
0

>  <Rbt.Current_Directory>
/home/itssahil/PROJECTS/Mol_Feturizer/New_Systems/rnas/1q8n

>  <Rbt.Executable>
rbdock ($Id: //depot/dev/client3/rdock/2013.1/src/exe/rbdock.cxx#4 $)

>  <Rbt.Library>
libRbt.so (2013.1, Build901 2013/11/27)

>  <Rbt.Parameter_File>
/export/apps/rDock/src/rDock_2013.1_src/data/scripts/dock_solv.prm

>  <Rbt.Receptor>
prm/pocket_docking_8.prm

>  <SCORE>
-32.0915

>  <SCORE.INTER>
-32.5001

>  <SCORE.INTER.CONST>
1

>  <SCORE.INTER.POLAR>
0

>  <SCORE.INTER.ROT>
5

>  <SCORE.INTER.SOLV>
7.23634

>  <SCORE.INTER.VDW>
-31.0122

>  <SCORE.INTER.norm>
-1.3

>  <SCORE.INTRA>
0.408586

>  <SCORE.INTRA.DIHEDRAL>
2.22216

>  <SCORE.INTRA.DIHEDRAL.0>
2.1627

>  <SCORE.INTRA.POLAR>
0

>  <SCORE.INTRA.POLAR.0>
0

>  <SCORE.INTRA.REPUL>
0

>  <SCORE.INTRA.REPUL.0>
0

>  <SCORE.INTRA.SOLV>
-0.00658006

>  <SCORE.INTRA.SOLV.lig_0>
-5.95779

>  <SCORE.INTRA.VDW>
-0.699203

>  <SCORE.INTRA.VDW.0>
3.81702

>  <SCORE.INTRA.norm>
0.0163434

>  <SCORE.RESTR>
0

>  <SCORE.RESTR.CAVITY>
0

>  <SCORE.RESTR.norm>
0

>  <SCORE.SYSTEM>
0

>  <SCORE.SYSTEM.CONST>
0

>  <SCORE.SYSTEM.DIHEDRAL>
0

>  <SCORE.SYSTEM.SOLV>
0

>  <SCORE.SYSTEM.norm>
0

>  <SCORE.heavy>
25

>  <SCORE.norm>
-1.28366

>  <RMSD>
7.067

$$$$
1q8n_lig
 OpenBabel11021811403D
libRbt.so/2013.1/901 2013/11/27
 25 27  0  0  0  0  0  0  0  0999 V2000
    1.7182   -3.5205    0.3294 C   0  0  0  0  0  0  0  0  0  0  0  0
    1.6845   -4.7217   -0.7758 C   0  0  0  0  0  0  0  0  0  0  0  0
    2.8563   -4.9284    5.9990 N   0  0  0  0  0  0  0  0  0  0  0  0
    1.2081   -5.9630   -0.5164 C   0  0  0  0  0  0  0  0  0  0  0  0
    0.7794    2.1349   -1.4164 N   0  0  0  0  0  0  0  0  0  0  0  0
    1.2009   -7.0270   -1.5468 C   0  0  0  0  0  0  0  0  0  0  0  0
    1.6787   -6.7658   -2.7851 C   0  0  0  0  0  0  0  0  0  0  0  0
    2.1852   -5.4469   -3.0849 C   0  0  0  0  0  0  0  0  0  0  0  0
    2.1881   -4.4965   -2.1468 C   0  0  0  0  0  0  0  0  0  0  0  0
    2.0353   -3.9062    1.8821 C   0  0  0  0  0  0  0  0  0  0  0  0
    3.2719   -3.7578    2.4010 C   0  0  0  0  0  0  0  0  0  0  0  0
    3.5797   -4.1048    3.8162 C   0  0  0  0  0  0  0  0  0  0  0  0
    2.6025   -4.5847    4.6311 C   0  0  0  0  0  0  0  0  0  0  0  0
    1.2448   -4.7502    4.0784 C   0  0  0  0  0  0  0  0  0  0  0  0
    0.9856   -4.4347    2.8018 C   0  0  0  0  0  0  0  0  0  0  0  0
    1.4389   -1.9411   -0.0901 C   0  0  0  0  0  0  0  0  0  0  0  0
    1.8832   -1.4352   -1.4348 C   0  0  0  0  0  0  0  0  0  0  0  0
    1.6803   -0.1778   -1.8376 C   0  0  0  0  0  0  0  0  0  0  0  0
    1.0013    0.7915   -0.9697 C   0  0  0  0  0  0  0  0  0  0  0  0
    0.5877    0.3906    0.2504 C   0  0  0  0  0  0  0  0  0  0  0  0
    0.8088   -1.0207    0.7132 C   0  0  0  0  0  0  0  0  0  0  0  0
    1.9093   -5.6498    6.7936 C   0  0  0  0  0  0  0  0  0  0  0  0
    4.0894   -4.5521    6.6179 C   0  0  0  0  0  0  0  0  0  0  0  0
    0.2753    3.1265   -0.5103 C   0  0  0  0  0  0  0  0  0  0  0  0
    1.0600    2.5286   -2.7786 C   0  0  0  0  0  0  0  0  0  0  0  0
  1  2  1  0  0  0  0
  1 10  1  0  0  0  0
  1 16  1  0  0  0  0
  2  4  2  0  0  0  0
  2  9  1  0  0  0  0
  4  6  1  0  0  0  0
  6  7  2  0  0  0  0
  7  8  1  0  0  0  0
  8  9  2  0  0  0  0
 10 11  2  0  0  0  0
 10 15  1  0  0  0  0
 11 12  1  0  0  0  0
 12 13  2  0  0  0  0
 13  3  1  0  0  0  0
 13 14  1  0  0  0  0
 14 15  2  0  0  0  0
 16 17  2  0  0  0  0
 16 21  1  0  0  0  0
 17 18  1  0  0  0  0
 18 19  2  0  0  0  0
 19  5  1  0  0  0  0
 19 20  1  0  0  0  0
 20 21  2  0  0  0  0
 22  3  1  0  0  0  0
 23  3  1  0  0  0  0
 24  5  1  0  0  0  0
 25  5  1  0  0  0  0
M  END
>  <CHROM.1>
36.20811273,98.72708401,-33.79612224,-168.65794815,-171.87462924,1.76042161
-2.91588897,0.86566388,0.02274056,1.39087191,-2.41927697

>  <Name>
1q8n_lig

>  <RI>
0

>  <Rbt.Current_Directory>
/home/itssahil/PROJECTS/Mol_Feturizer/New_Systems/rnas/1q8n

>  <Rbt.Executable>
rbdock ($Id: //depot/dev/client3/rdock/2013.1/src/exe/rbdock.cxx#4 $)

>  <Rbt.Library>
libRbt.so (2013.1, Build901 2013/11/27)

>  <Rbt.Parameter_File>
/export/apps/rDock/src/rDock_2013.1_src/data/scripts/dock_solv.prm

>  <Rbt.Receptor>
prm/blind_docking_40.prm

>  <SCORE>
-44.6388

>  <SCORE.INTER>
-44.8031

>  <SCORE.INTER.CONST>
1

>  <SCORE.INTER.POLAR>
0

>  <SCORE.INTER.ROT>
5

>  <SCORE.INTER.SOLV>
10.4698

>  <SCORE.INTER.VDW>
-40.292

>  <SCORE.INTER.norm>
-1.79212

>  <SCORE.INTRA>
0.16436

>  <SCORE.INTRA.DIHEDRAL>
0.750272

>  <SCORE.INTRA.DIHEDRAL.0>
2.1627

>  <SCORE.INTRA.POLAR>
0

>  <SCORE.INTRA.POLAR.0>
0

>  <SCORE.INTRA.REPUL>
0

>  <SCORE.INTRA.REPUL.0>
0

>  <SCORE.INTRA.SOLV>
-0.00242792

>  <SCORE.INTRA.SOLV.lig_0>
-5.95779

>  <SCORE.INTRA.VDW>
-0.209562

>  <SCORE.INTRA.VDW.0>
3.81702

>  <SCORE.INTRA.norm>
0.0065744

>  <SCORE.RESTR>
0

>  <SCORE.RESTR.CAVITY>
0

>  <SCORE.RESTR.norm>
0

>  <SCORE.SYSTEM>
0

>  <SCORE.SYSTEM.CONST>
0

>  <SCORE.SYSTEM.DIHEDRAL>
0

>  <SCORE.SYSTEM.SOLV>
0

>  <SCORE.SYSTEM.norm>
0

>  <SCORE.heavy>
25

>  <SCORE.norm>
-1.78555

>  <RMSD>
7.112

$$$$
1q8n_lig
 OpenBabel11021811403D
libRbt.so/2013.1/901 2013/11/27
 25 27  0  0  0  0  0  0  0  0999 V2000
    1.8286   -3.5665    0.1713 C   0  0  0  0  0  0  0  0  0  0  0  0
    1.7549   -4.7447   -0.9565 C   0  0  0  0  0  0  0  0  0  0  0  0
    0.7549    2.0396   -1.5142 N   0  0  0  0  0  0  0  0  0  0  0  0
    2.1931   -4.5900   -2.2289 C   0  0  0  0  0  0  0  0  0  0  0  0
    2.9146   -4.8769    5.9172 N   0  0  0  0  0  0  0  0  0  0  0  0
    2.1025   -5.6836   -3.2237 C   0  0  0  0  0  0  0  0  0  0  0  0
    1.5714   -6.8751   -2.8653 C   0  0  0  0  0  0  0  0  0  0  0  0
    1.1043   -7.0635   -1.5117 C   0  0  0  0  0  0  0  0  0  0  0  0
    1.1897   -6.0692   -0.6244 C   0  0  0  0  0  0  0  0  0  0  0  0
    1.5384   -2.0305   -0.2943 C   0  0  0  0  0  0  0  0  0  0  0  0
    2.0406   -1.5425   -1.4475 C   0  0  0  0  0  0  0  0  0  0  0  0
    1.7859   -0.1429   -1.8883 C   0  0  0  0  0  0  0  0  0  0  0  0
    1.0256    0.6871   -1.1253 C   0  0  0  0  0  0  0  0  0  0  0  0
    0.4678    0.1669    0.1373 C   0  0  0  0  0  0  0  0  0  0  0  0
    0.7084   -1.0949    0.5200 C   0  0  0  0  0  0  0  0  0  0  0  0
    2.1887   -3.8966    1.7556 C   0  0  0  0  0  0  0  0  0  0  0  0
    1.1338   -4.4774    2.6564 C   0  0  0  0  0  0  0  0  0  0  0  0
    1.3615   -4.7749    3.9386 C   0  0  0  0  0  0  0  0  0  0  0  0
    2.6785   -4.5439    4.5437 C   0  0  0  0  0  0  0  0  0  0  0  0
    3.6592   -4.0185    3.7803 C   0  0  0  0  0  0  0  0  0  0  0  0
    3.4153   -3.6816    2.3375 C   0  0  0  0  0  0  0  0  0  0  0  0
    1.0045    2.5176   -2.8400 C   0  0  0  0  0  0  0  0  0  0  0  0
    0.2159    2.9658   -0.5672 C   0  0  0  0  0  0  0  0  0  0  0  0
    4.1786   -4.5811    6.5282 C   0  0  0  0  0  0  0  0  0  0  0  0
    1.8939   -5.5092    6.7221 C   0  0  0  0  0  0  0  0  0  0  0  0
  1  2  1  0  0  0  0
  1 10  1  0  0  0  0
  1 16  1  0  0  0  0
  2  4  2  0  0  0  0
  2  9  1  0  0  0  0
  4  6  1  0  0  0  0
  6  7  2  0  0  0  0
  7  8  1  0  0  0  0
  8  9  2  0  0  0  0
 10 11  2  0  0  0  0
 10 15  1  0  0  0  0
 11 12  1  0  0  0  0
 12 13  2  0  0  0  0
 13  3  1  0  0  0  0
 13 14  1  0  0  0  0
 14 15  2  0  0  0  0
 16 17  2  0  0  0  0
 16 21  1  0  0  0  0
 17 18  1  0  0  0  0
 18 19  2  0  0  0  0
 19  5  1  0  0  0  0
 19 20  1  0  0  0  0
 20 21  2  0  0  0  0
 22  3  1  0  0  0  0
 23  3  1  0  0  0  0
 24  5  1  0  0  0  0
 25  5  1  0  0  0  0
M  END
>  <CHROM.1>
37.82291921,-42.10541534,-77.62902631,14.09672186,-176.46515344,1.78880613
-2.96210621,0.76722898,3.06996996,-1.37865635,0.65637689

>  <Name>
1q8n_lig

>  <RI>
0

>  <Rbt.Current_Directory>
/home/itssahil/PROJECTS/Mol_Feturizer/New_Systems/rnas/1q8n

>  <Rbt.Executable>
rbdock ($Id: //depot/dev/client3/rdock/2013.1/src/exe/rbdock.cxx#4 $)

>  <Rbt.Library>
libRbt.so (2013.1, Build901 2013/11/27)

>  <Rbt.Parameter_File>
/export/apps/rDock/src/rDock_2013.1_src/data/scripts/dock_solv.prm

>  <Rbt.Receptor>
prm/blind_docking_100.prm

>  <SCORE>
-42.2454

>  <SCORE.INTER>
-43.847

>  <SCORE.INTER.CONST>
1

>  <SCORE.INTER.POLAR>
0

>  <SCORE.INTER.ROT>
5

>  <SCORE.INTER.SOLV>
10.47

>  <SCORE.INTER.VDW>
-39.6547

>  <SCORE.INTER.norm>
-1.75388

>  <SCORE.INTRA>
0.18614

>  <SCORE.INTRA.DIHEDRAL>
0.805083

>  <SCORE.INTRA.DIHEDRAL.0>
2.1627

>  <SCORE.INTRA.POLAR>
0

>  <SCORE.INTRA.POLAR.0>
0

>  <SCORE.INTRA.REPUL>
0

>  <SCORE.INTRA.REPUL.0>
0

>  <SCORE.INTRA.SOLV>
-0.0133079

>  <SCORE.INTRA.SOLV.lig_0>
-5.95779

>  <SCORE.INTRA.VDW>
-0.209748

>  <SCORE.INTRA.VDW.0>
3.81702

>  <SCORE.INTRA.norm>
0.00744559

>  <SCORE.RESTR>
1.41553

>  <SCORE.RESTR.CAVITY>
1.41553

>  <SCORE.RESTR.norm>
0.0566213

>  <SCORE.SYSTEM>
0

>  <SCORE.SYSTEM.CONST>
0

>  <SCORE.SYSTEM.DIHEDRAL>
0

>  <SCORE.SYSTEM.SOLV>
0

>  <SCORE.SYSTEM.norm>
0

>  <SCORE.heavy>
25

>  <SCORE.norm>
-1.68982

>  <RMSD>
7.126

$$$$
1q8n_lig
 OpenBabel11021811403D
libRbt.so/2013.1/901 2013/11/27
 25 27  0  0  0  0  0  0  0  0999 V2000
    1.7022   -3.6628    0.4779 C   0  0  0  0  0  0  0  0  0  0  0  0
    1.6708   -4.8071   -0.6862 C   0  0  0  0  0  0  0  0  0  0  0  0
    0.6018    1.9720   -1.0905 N   0  0  0  0  0  0  0  0  0  0  0  0
    1.1628   -6.0489   -0.5001 C   0  0  0  0  0  0  0  0  0  0  0  0
    3.1143   -4.8907    6.1710 N   0  0  0  0  0  0  0  0  0  0  0  0
    1.1589   -7.0605   -1.5820 C   0  0  0  0  0  0  0  0  0  0  0  0
    1.6719   -6.7490   -2.7944 C   0  0  0  0  0  0  0  0  0  0  0  0
    2.2126   -5.4283   -3.0162 C   0  0  0  0  0  0  0  0  0  0  0  0
    2.2121   -4.5256   -2.0322 C   0  0  0  0  0  0  0  0  0  0  0  0
    1.3979   -2.1179    0.0527 C   0  0  0  0  0  0  0  0  0  0  0  0
    0.9561   -1.2180    0.9557 C   0  0  0  0  0  0  0  0  0  0  0  0
    0.6731    0.1964    0.5854 C   0  0  0  0  0  0  0  0  0  0  0  0
    0.8602    0.6195   -0.6934 C   0  0  0  0  0  0  0  0  0  0  0  0
    1.3451   -0.3525   -1.6914 C   0  0  0  0  0  0  0  0  0  0  0  0
    1.5931   -1.6224   -1.3415 C   0  0  0  0  0  0  0  0  0  0  0  0
    2.0338   -4.0356    2.0589 C   0  0  0  0  0  0  0  0  0  0  0  0
    3.4033   -3.7668    2.6189 C   0  0  0  0  0  0  0  0  0  0  0  0
    3.7321   -4.0347    3.8856 C   0  0  0  0  0  0  0  0  0  0  0  0
    2.7537   -4.6174    4.8113 C   0  0  0  0  0  0  0  0  0  0  0  0
    1.5113   -4.8840    4.3577 C   0  0  0  0  0  0  0  0  0  0  0  0
    1.1298   -4.5856    2.9363 C   0  0  0  0  0  0  0  0  0  0  0  0
    0.1008    2.9537   -0.1774 C   0  0  0  0  0  0  0  0  0  0  0  0
    0.8443    2.3844   -2.4382 C   0  0  0  0  0  0  0  0  0  0  0  0
    2.2094   -5.5943    7.0338 C   0  0  0  0  0  0  0  0  0  0  0  0
    4.3908   -4.4748    6.7067 C   0  0  0  0  0  0  0  0  0  0  0  0
  1  2  1  0  0  0  0
  1 10  1  0  0  0  0
  1 16  1  0  0  0  0
  2  4  2  0  0  0  0
  2  9  1  0  0  0  0
  4  6  1  0  0  0  0
  6  7  2  0  0  0  0
  7  8  1  0  0  0  0
  8  9  2  0  0  0  0
 10 11  2  0  0  0  0
 10 15  1  0  0  0  0
 11 12  1  0  0  0  0
 12 13  2  0  0  0  0
 13  3  1  0  0  0  0
 13 14  1  0  0  0  0
 14 15  2  0  0  0  0
 16 17  2  0  0  0  0
 16 21  1  0  0  0  0
 17 18  1  0  0  0  0
 18 19  2  0  0  0  0
 19  5  1  0  0  0  0
 19 20  1  0  0  0  0
 20 21  2  0  0  0  0
 22  3  1  0  0  0  0
 23  3  1  0  0  0  0
 24  5  1  0  0  0  0
 25  5  1  0  0  0  0
M  END
>  <CHROM.1>
-141.23571867,156.90085917,101.47345063,-1.55271658,-173.06683651,1.78134154
-2.99977977,1.03557512,3.13490579,-1.34444947,0.69486778

>  <Name>
1q8n_lig

>  <RI>
0

>  <Rbt.Current_Directory>
/home/itssahil/PROJECTS/Mol_Feturizer/New_Systems/rnas/1q8n

>  <Rbt.Executable>
rbdock ($Id: //depot/dev/client3/rdock/2013.1/src/exe/rbdock.cxx#4 $)

>  <Rbt.Library>
libRbt.so (2013.1, Build901 2013/11/27)

>  <Rbt.Parameter_File>
/export/apps/rDock/src/rDock_2013.1_src/data/scripts/dock_solv.prm

>  <Rbt.Receptor>
prm/blind_docking_40.prm

>  <SCORE>
-44.3219

>  <SCORE.INTER>
-44.5823

>  <SCORE.INTER.CONST>
1

>  <SCORE.INTER.POLAR>
0

>  <SCORE.INTER.ROT>
5

>  <SCORE.INTER.SOLV>
10.2286

>  <SCORE.INTER.VDW>
-40.0644

>  <SCORE.INTER.norm>
-1.78329

>  <SCORE.INTRA>
0.260396

>  <SCORE.INTRA.DIHEDRAL>
0.193256

>  <SCORE.INTRA.DIHEDRAL.0>
2.1627

>  <SCORE.INTRA.POLAR>
0

>  <SCORE.INTRA.POLAR.0>
0

>  <SCORE.INTRA.REPUL>
0

>  <SCORE.INTRA.REPUL.0>
0

>  <SCORE.INTRA.SOLV>
0.00424293

>  <SCORE.INTRA.SOLV.lig_0>
-5.95779

>  <SCORE.INTRA.VDW>
0.161646

>  <SCORE.INTRA.VDW.0>
3.81702

>  <SCORE.INTRA.norm>
0.0104158

>  <SCORE.RESTR>
0

>  <SCORE.RESTR.CAVITY>
0

>  <SCORE.RESTR.norm>
0

>  <SCORE.SYSTEM>
0

>  <SCORE.SYSTEM.CONST>
0

>  <SCORE.SYSTEM.DIHEDRAL>
0

>  <SCORE.SYSTEM.SOLV>
0

>  <SCORE.SYSTEM.norm>
0

>  <SCORE.heavy>
25

>  <SCORE.norm>
-1.77288

>  <RMSD>
7.158

$$$$
1q8n_lig
 OpenBabel11021811403D
libRbt.so/2013.1/901 2013/11/27
 25 27  0  0  0  0  0  0  0  0999 V2000
    9.3058    6.3202   -7.3524 C   0  0  0  0  0  0  0  0  0  0  0  0
    8.2646    6.6709   -8.5601 C   0  0  0  0  0  0  0  0  0  0  0  0
   13.4393   10.3514   -5.9085 N   0  0  0  0  0  0  0  0  0  0  0  0
    7.1006    7.3380   -8.3732 C   0  0  0  0  0  0  0  0  0  0  0  0
    8.8246    1.1573   -4.3481 N   0  0  0  0  0  0  0  0  0  0  0  0
    6.1804    7.6312   -9.4963 C   0  0  0  0  0  0  0  0  0  0  0  0
    6.4991    7.2291  -10.7480 C   0  0  0  0  0  0  0  0  0  0  0  0
    7.7387    6.5222  -10.9704 C   0  0  0  0  0  0  0  0  0  0  0  0
    8.5591    6.2622   -9.9494 C   0  0  0  0  0  0  0  0  0  0  0  0
   10.4351    7.4289   -6.9580 C   0  0  0  0  0  0  0  0  0  0  0  0
   10.1092    8.7257   -6.7779 C   0  0  0  0  0  0  0  0  0  0  0  0
   11.1269    9.7515   -6.4176 C   0  0  0  0  0  0  0  0  0  0  0  0
   12.4296    9.3960   -6.2568 C   0  0  0  0  0  0  0  0  0  0  0  0
   12.8008    7.9812   -6.4484 C   0  0  0  0  0  0  0  0  0  0  0  0
   11.8723    7.0711   -6.7743 C   0  0  0  0  0  0  0  0  0  0  0  0
    9.2386    4.8803   -6.5333 C   0  0  0  0  0  0  0  0  0  0  0  0
    8.0111    4.5290   -5.7386 C   0  0  0  0  0  0  0  0  0  0  0  0
    7.8896    3.3821   -5.0647 C   0  0  0  0  0  0  0  0  0  0  0  0
    8.9701    2.3890   -5.0657 C   0  0  0  0  0  0  0  0  0  0  0  0
   10.0965    2.6576   -5.7584 C   0  0  0  0  0  0  0  0  0  0  0  0
   10.2437    3.9428   -6.5209 C   0  0  0  0  0  0  0  0  0  0  0  0
   13.1289   11.7163   -5.6100 C   0  0  0  0  0  0  0  0  0  0  0  0
   14.8125    9.9564   -5.8480 C   0  0  0  0  0  0  0  0  0  0  0  0
    9.4307    0.9936   -3.0580 C   0  0  0  0  0  0  0  0  0  0  0  0
    8.0647    0.0558   -4.8947 C   0  0  0  0  0  0  0  0  0  0  0  0
  1  2  1  0  0  0  0
  1 10  1  0  0  0  0
  1 16  1  0  0  0  0
  2  4  2  0  0  0  0
  2  9  1  0  0  0  0
  4  6  1  0  0  0  0
  6  7  2  0  0  0  0
  7  8  1  0  0  0  0
  8  9  2  0  0  0  0
 10 11  2  0  0  0  0
 10 15  1  0  0  0  0
 11 12  1  0  0  0  0
 12 13  2  0  0  0  0
 13  3  1  0  0  0  0
 13 14  1  0  0  0  0
 14 15  2  0  0  0  0
 16 17  2  0  0  0  0
 16 21  1  0  0  0  0
 17 18  1  0  0  0  0
 18 19  2  0  0  0  0
 19  5  1  0  0  0  0
 19 20  1  0  0  0  0
 20 21  2  0  0  0  0
 22  3  1  0  0  0  0
 23  3  1  0  0  0  0
 24  5  1  0  0  0  0
 25  5  1  0  0  0  0
M  END
>  <CHROM.1>
-87.27390778,47.59238789,-62.47360811,4.78751446,-100.19269635,9.82814328
6.15936156,-6.72200821,0.98479223,-0.66436844,-0.56041866

>  <Name>
1q8n_lig

>  <RI>
0

>  <Rbt.Current_Directory>
/home/itssahil/PROJECTS/Mol_Feturizer/New_Systems/rnas/1q8n

>  <Rbt.Executable>
rbdock ($Id: //depot/dev/client3/rdock/2013.1/src/exe/rbdock.cxx#4 $)

>  <Rbt.Library>
libRbt.so (2013.1, Build901 2013/11/27)

>  <Rbt.Parameter_File>
/export/apps/rDock/src/rDock_2013.1_src/data/scripts/dock_solv.prm

>  <Rbt.Receptor>
prm/blind_docking_100.prm

>  <SCORE>
-29.2533

>  <SCORE.INTER>
-32.1089

>  <SCORE.INTER.CONST>
1

>  <SCORE.INTER.POLAR>
0

>  <SCORE.INTER.ROT>
5

>  <SCORE.INTER.SOLV>
9.01585

>  <SCORE.INTER.VDW>
-31.3446

>  <SCORE.INTER.norm>
-1.28436

>  <SCORE.INTRA>
2.85561

>  <SCORE.INTRA.DIHEDRAL>
12.4841

>  <SCORE.INTRA.DIHEDRAL.0>
2.1627

>  <SCORE.INTRA.POLAR>
0

>  <SCORE.INTRA.POLAR.0>
0

>  <SCORE.INTRA.REPUL>
0

>  <SCORE.INTRA.REPUL.0>
0

>  <SCORE.INTRA.SOLV>
-0.0421766

>  <SCORE.INTRA.SOLV.lig_0>
-5.95779

>  <SCORE.INTRA.VDW>
-3.36536

>  <SCORE.INTRA.VDW.0>
3.81702

>  <SCORE.INTRA.norm>
0.114224

>  <SCORE.RESTR>
0

>  <SCORE.RESTR.CAVITY>
0

>  <SCORE.RESTR.norm>
0

>  <SCORE.SYSTEM>
0

>  <SCORE.SYSTEM.CONST>
0

>  <SCORE.SYSTEM.DIHEDRAL>
0

>  <SCORE.SYSTEM.SOLV>
0

>  <SCORE.SYSTEM.norm>
0

>  <SCORE.heavy>
25

>  <SCORE.norm>
-1.17013

>  <RMSD>
12.797

$$$$
