ligand
  PyMOL2.2          3D                             0

 34 36  0  0  0  0  0  0  0  0999 V2000
   18.4910   27.8970   34.9380 C   0  0  0  0  0  0  0  0  0  0  0  0
   19.0150   27.5190   36.2150 O   0  0  0  0  0  0  0  0  0  0  0  0
   22.5770   28.4350   38.4230 C   0  0  0  0  0  0  0  0  0  0  0  0
   23.9880   28.5430   38.8180 N   0  0  0  0  0  0  0  0  0  0  0  0
   23.6700   31.3790   36.7230 C   0  0  0  0  0  0  0  0  0  0  0  0
   16.9490   28.1710   35.1050 C   0  0  0  0  0  0  0  0  0  0  0  0
   16.7090   29.2360   36.0920 N   0  0  0  0  0  0  0  0  0  0  0  0
   22.2790   26.9220   38.1210 C   0  0  0  0  0  0  0  0  0  0  0  0
   24.2390   32.4270   37.7590 C   0  0  0  0  0  0  0  0  0  0  0  0
   24.7510   31.7620   38.9010 O   0  0  0  0  0  0  0  0  0  0  0  0
   16.2140   26.8660   35.5360 C   0  0  0  0  0  0  0  0  0  0  0  0
   14.8040   27.1120   35.6900 O   0  0  0  0  0  0  0  0  0  0  0  0
   20.7670   26.8050   37.7180 C   0  0  0  0  0  0  0  0  0  0  0  0
   20.4130   25.3900   37.4100 N   0  0  0  0  0  0  0  0  0  0  0  0
   23.0670   33.3960   38.1710 C   0  0  0  0  0  0  0  0  0  0  0  0
   23.5260   34.3820   39.1700 N   0  0  0  0  0  0  0  0  0  0  0  0
   16.4900   25.7770   34.4730 C   0  0  0  0  0  0  0  0  0  0  0  0
   15.8130   24.5720   34.8440 O   0  0  0  0  0  0  0  0  0  0  0  0
   20.4560   27.6840   36.4690 C   0  0  0  0  0  0  0  0  0  0  0  0
   22.5350   34.1220   36.8950 C   0  0  0  0  0  0  0  0  0  0  0  0
   23.5950   34.8960   36.3430 O   0  0  0  0  0  0  0  0  0  0  0  0
   18.0600   25.5550   34.3640 C   0  0  0  0  0  0  0  0  0  0  0  0
   18.7420   26.8140   33.9900 O   0  0  0  0  0  0  0  0  0  0  0  0
   20.8250   29.1600   36.7800 C   0  0  0  0  0  0  0  0  0  0  0  0
   20.5610   29.9360   35.6130 O   0  0  0  0  0  0  0  0  0  0  0  0
   22.0650   33.0480   35.8620 C   0  0  0  0  0  0  0  0  0  0  0  0
   23.1550   32.0960   35.5400 O   0  0  0  0  0  0  0  0  0  0  0  0
   18.4410   24.4750   33.3110 C   0  0  0  0  0  0  0  0  0  0  0  0
   19.8660   24.3430   33.2650 O   0  0  0  0  0  0  0  0  0  0  0  0
   22.3260   29.3180   37.1270 C   0  0  0  0  0  0  0  0  0  0  0  0
   22.5690   30.7200   37.4270 O   0  0  0  0  0  0  0  0  0  0  0  0
   17.9640   24.8380   31.9220 C   0  0  0  0  0  0  0  0  0  0  0  0
   21.3770   35.0700   37.2100 C   0  0  0  0  0  0  0  0  0  0  0  0
   22.9660   33.9780   40.4830 C   0  0  0  0  0  0  0  0  0  0  0  0
  1  2  1  0  0  0  0
  1  6  1  0  0  0  0
  1 23  1  0  0  0  0
  2 19  1  0  0  0  0
  3  4  1  0  0  0  0
  3  8  1  0  0  0  0
  3 30  1  0  0  0  0
  5  9  1  0  0  0  0
  5 27  1  0  0  0  0
  6  7  1  0  0  0  0
  6 11  1  0  0  0  0
  8 13  1  0  0  0  0
  9 10  1  0  0  0  0
  9 15  1  0  0  0  0
 11 12  1  0  0  0  0
 11 17  1  0  0  0  0
 13 14  1  0  0  0  0
 13 19  1  0  0  0  0
 15 16  1  0  0  0  0
 15 20  1  0  0  0  0
 16 34  1  0  0  0  0
 17 18  1  0  0  0  0
 17 22  1  0  0  0  0
 19 24  1  0  0  0  0
 20 21  1  0  0  0  0
 20 26  1  0  0  0  0
 20 33  1  0  0  0  0
 22 23  1  0  0  0  0
 22 28  1  0  0  0  0
 24 25  1  0  0  0  0
 24 30  1  0  0  0  0
 26 27  1  0  0  0  0
 28 29  1  0  0  0  0
 28 32  1  0  0  0  0
 30 31  1  0  0  0  0
  5 31  1  0  0  0  0
M  END
$$$$
