ligand
 OpenBabel01301917533D
libRbt.so/2013.1/901 2013/11/27
 34 36  0  0  0  0  0  0  0  0999 V2000
   18.5855   28.0784   34.8412 C   0  0  2  0  0  0  0  0  0  0  0  0
   19.0386   27.7125   36.1485 O   0  0  0  0  0  0  0  0  0  0  0  0
   22.6153   28.2268   38.4604 C   0  0  2  0  0  0  0  0  0  0  0  0
   24.0217   28.1993   38.8848 N   0  0  0  0  0  0  0  0  0  0  0  0
   24.1486   31.0266   37.2090 C   0  0  2  0  0  0  0  0  0  0  0  0
   17.0154   28.1961   34.8842 C   0  0  2  0  0  0  0  0  0  0  0  0
   16.5913   29.2008   35.8725 N   0  0  0  0  0  0  0  0  0  0  0  0
   22.2015   26.7594   38.0800 C   0  0  0  0  0  0  0  0  0  0  0  0
   24.4986   32.1175   38.2967 C   0  0  2  0  0  0  0  0  0  0  0  0
   24.5560   31.5280   39.5842 O   0  0  0  0  0  0  0  0  0  0  0  0
   16.3810   26.8129   35.2208 C   0  0  1  0  0  0  0  0  0  0  0  0
   14.9457   26.9160   35.2613 O   0  0  0  0  0  0  0  0  0  0  0  0
   20.6940   26.7865   37.6454 C   0  0  2  0  0  0  0  0  0  0  0  0
   20.2325   25.4216   37.2627 N   0  0  0  0  0  0  0  0  0  0  0  0
   23.3826   33.2288   38.2541 C   0  0  1  0  0  0  0  0  0  0  0  0
   23.6324   34.2647   39.2765 N   0  0  0  0  0  0  0  0  0  0  0  0
   16.8494   25.7902   34.1593 C   0  0  2  0  0  0  0  0  0  0  0  0
   16.2675   24.5140   34.4433 O   0  0  0  0  0  0  0  0  0  0  0  0
   20.4825   27.7460   36.4354 C   0  0  2  0  0  0  0  0  0  0  0  0
   23.3543   33.8668   36.8292 C   0  0  1  0  0  0  0  0  0  0  0  0
   24.6170   34.4777   36.5847 O   0  0  0  0  0  0  0  0  0  0  0  0
   18.4374   25.7251   34.1777 C   0  0  2  0  0  0  0  0  0  0  0  0
   19.0192   27.0556   33.8924 O   0  0  0  0  0  0  0  0  0  0  0  0
   20.9639   29.1703   36.8243 C   0  0  2  0  0  0  0  0  0  0  0  0
   20.7890   30.0195   35.6920 O   0  0  0  0  0  0  0  0  0  0  0  0
   23.0939   32.7413   35.7771 C   0  0  0  0  0  0  0  0  0  0  0  0
   24.1071   31.6636   35.8781 O   0  0  0  0  0  0  0  0  0  0  0  0
   19.0082   24.7213   33.1352 C   0  0  2  0  0  0  0  0  0  0  0  0
   20.4385   24.7347   33.2014 O   0  0  0  0  0  0  0  0  0  0  0  0
   22.4650   29.1875   37.2047 C   0  0  1  0  0  0  0  0  0  0  0  0
   22.8150   30.5490   37.5768 O   0  0  0  0  0  0  0  0  0  0  0  0
   18.6063   25.0763   31.7206 C   0  0  0  0  0  0  0  0  0  0  0  0
   22.2785   34.9461   36.7005 C   0  0  0  0  0  0  0  0  0  0  0  0
   22.8538   33.8944   40.4838 C   0  0  0  0  0  0  0  0  0  0  0  0
  1  2  1  1  0  0  0
  1  6  1  0  0  0  0
  1 23  1  0  0  0  0
  3  4  1  6  0  0  0
  3  8  1  0  0  0  0
  3 30  1  0  0  0  0
  5  9  1  0  0  0  0
  5 27  1  0  0  0  0
  5 31  1  1  0  0  0
  6  7  1  1  0  0  0
  6 11  1  0  0  0  0
  8 13  1  0  0  0  0
  9 10  1  1  0  0  0
  9 15  1  0  0  0  0
 11 12  1  6  0  0  0
 11 17  1  0  0  0  0
 13 14  1  6  0  0  0
 13 19  1  0  0  0  0
 15 16  1  1  0  0  0
 15 20  1  0  0  0  0
 16 34  1  0  0  0  0
 17 18  1  1  0  0  0
 17 22  1  0  0  0  0
 19  2  1  1  0  0  0
 19 24  1  0  0  0  0
 20 21  1  6  0  0  0
 20 26  1  0  0  0  0
 20 33  1  0  0  0  0
 22 23  1  6  0  0  0
 22 28  1  0  0  0  0
 24 25  1  6  0  0  0
 24 30  1  0  0  0  0
 26 27  1  0  0  0  0
 28 29  1  6  0  0  0
 28 32  1  0  0  0  0
 30 31  1  1  0  0  0
M  END
>  <CHROM.1>
-170.34064155,-157.49423816,-94.30629983,179.20679108,100.53991935,-152.13793723
20.85002425,29.13621636,36.33053231,2.33986140,0.50811471,-3.09711401

>  <Name>
ligand

>  <RI>
0

>  <Rbt.Current_Directory>
/home/itssahil/PROJECTS/Mol_Feturizer/New_Systems/rnas/4p3s

>  <Rbt.Executable>
rbdock ($Id: //depot/dev/client3/rdock/2013.1/src/exe/rbdock.cxx#4 $)

>  <Rbt.Library>
libRbt.so (2013.1, Build901 2013/11/27)

>  <Rbt.Parameter_File>
/export/apps/rDock/src/rDock_2013.1_src/data/scripts/dock_solv.prm

>  <Rbt.Receptor>
prm/pocket_docking_2.prm

>  <SCORE>
-18.8666

>  <SCORE.INTER>
-17.2854

>  <SCORE.INTER.CONST>
1

>  <SCORE.INTER.POLAR>
0

>  <SCORE.INTER.ROT>
6

>  <SCORE.INTER.SOLV>
22.0832

>  <SCORE.INTER.VDW>
-26.4847

>  <SCORE.INTER.norm>
-0.508395

>  <SCORE.INTRA>
-1.58115

>  <SCORE.INTRA.DIHEDRAL>
-3.73762

>  <SCORE.INTRA.DIHEDRAL.0>
15.8194

>  <SCORE.INTRA.POLAR>
0

>  <SCORE.INTRA.POLAR.0>
0

>  <SCORE.INTRA.REPUL>
0

>  <SCORE.INTRA.REPUL.0>
0

>  <SCORE.INTRA.SOLV>
0.14739

>  <SCORE.INTRA.SOLV.lig_0>
-71.9159

>  <SCORE.INTRA.VDW>
0.213966

>  <SCORE.INTRA.VDW.0>
-3.53918

>  <SCORE.INTRA.norm>
-0.0465044

>  <SCORE.RESTR>
0

>  <SCORE.RESTR.CAVITY>
0

>  <SCORE.RESTR.norm>
0

>  <SCORE.SYSTEM>
0

>  <SCORE.SYSTEM.CONST>
0

>  <SCORE.SYSTEM.DIHEDRAL>
0

>  <SCORE.SYSTEM.SOLV>
0

>  <SCORE.SYSTEM.norm>
0

>  <SCORE.heavy>
34

>  <SCORE.norm>
-0.554899

>  <RMSD>
0.562

$$$$
ligand
 OpenBabel01301917533D
libRbt.so/2013.1/901 2013/11/27
 34 36  0  0  0  0  0  0  0  0999 V2000
   18.6615   28.1153   34.9267 C   0  0  2  0  0  0  0  0  0  0  0  0
   19.1283   27.7362   36.2254 O   0  0  0  0  0  0  0  0  0  0  0  0
   22.7205   28.2271   38.5182 C   0  0  2  0  0  0  0  0  0  0  0  0
   24.1308   28.2026   38.9296 N   0  0  0  0  0  0  0  0  0  0  0  0
   24.2053   31.0818   37.2974 C   0  0  2  0  0  0  0  0  0  0  0  0
   17.0924   28.2365   34.9884 C   0  0  2  0  0  0  0  0  0  0  0  0
   16.6819   29.2330   35.9905 N   0  0  0  0  0  0  0  0  0  0  0  0
   22.3169   26.7657   38.1052 C   0  0  0  0  0  0  0  0  0  0  0  0
   24.5339   32.2056   38.3579 C   0  0  2  0  0  0  0  0  0  0  0  0
   24.6232   31.6457   39.6567 O   0  0  0  0  0  0  0  0  0  0  0  0
   16.4581   26.8518   35.3192 C   0  0  1  0  0  0  0  0  0  0  0  0
   15.0237   26.9581   35.3767 O   0  0  0  0  0  0  0  0  0  0  0  0
   20.8054   26.7893   37.6845 C   0  0  2  0  0  0  0  0  0  0  0  0
   20.3532   25.4299   37.2723 N   0  0  0  0  0  0  0  0  0  0  0  0
   23.3843   33.2817   38.3049 C   0  0  1  0  0  0  0  0  0  0  0  0
   23.6136   34.3462   39.3025 N   0  0  0  0  0  0  0  0  0  0  0  0
   16.9120   25.8378   34.2431 C   0  0  2  0  0  0  0  0  0  0  0  0
   16.3300   24.5605   34.5219 O   0  0  0  0  0  0  0  0  0  0  0  0
   20.5743   27.7762   36.5005 C   0  0  2  0  0  0  0  0  0  0  0  0
   23.3211   33.8881   36.8674 C   0  0  1  0  0  0  0  0  0  0  0  0
   24.5619   34.5314   36.5956 O   0  0  0  0  0  0  0  0  0  0  0  0
   18.4999   25.7686   34.2431 C   0  0  2  0  0  0  0  0  0  0  0  0
   19.0819   27.1002   33.9636 O   0  0  0  0  0  0  0  0  0  0  0  0
   21.0459   29.1950   36.9202 C   0  0  2  0  0  0  0  0  0  0  0  0
   20.8532   30.0701   35.8108 O   0  0  0  0  0  0  0  0  0  0  0  0
   23.0834   32.7331   35.8422 C   0  0  0  0  0  0  0  0  0  0  0  0
   24.1299   31.6888   35.9541 O   0  0  0  0  0  0  0  0  0  0  0  0
   19.0565   24.7730   33.1851 C   0  0  2  0  0  0  0  0  0  0  0  0
   20.4874   24.7837   33.2341 O   0  0  0  0  0  0  0  0  0  0  0  0
   22.5501   29.2170   37.2880 C   0  0  1  0  0  0  0  0  0  0  0  0
   22.8908   30.5722   37.6905 O   0  0  0  0  0  0  0  0  0  0  0  0
   18.6380   25.1410   31.7786 C   0  0  0  0  0  0  0  0  0  0  0  0
   22.2116   34.9315   36.7286 C   0  0  0  0  0  0  0  0  0  0  0  0
   22.9057   33.9510   40.5449 C   0  0  0  0  0  0  0  0  0  0  0  0
  1  2  1  1  0  0  0
  1  6  1  0  0  0  0
  1 23  1  0  0  0  0
  3  4  1  6  0  0  0
  3  8  1  0  0  0  0
  3 30  1  0  0  0  0
  5  9  1  0  0  0  0
  5 27  1  0  0  0  0
  5 31  1  1  0  0  0
  6  7  1  1  0  0  0
  6 11  1  0  0  0  0
  8 13  1  0  0  0  0
  9 10  1  1  0  0  0
  9 15  1  0  0  0  0
 11 12  1  6  0  0  0
 11 17  1  0  0  0  0
 13 14  1  6  0  0  0
 13 19  1  0  0  0  0
 15 16  1  1  0  0  0
 15 20  1  0  0  0  0
 16 34  1  0  0  0  0
 17 18  1  1  0  0  0
 17 22  1  0  0  0  0
 19  2  1  1  0  0  0
 19 24  1  0  0  0  0
 20 21  1  6  0  0  0
 20 26  1  0  0  0  0
 20 33  1  0  0  0  0
 22 23  1  6  0  0  0
 22 28  1  0  0  0  0
 24 25  1  6  0  0  0
 24 30  1  0  0  0  0
 26 27  1  0  0  0  0
 28 29  1  6  0  0  0
 28 32  1  0  0  0  0
 30 31  1  1  0  0  0
M  END
>  <CHROM.1>
-169.73977817,-156.79065729,-92.01510637,179.12520348,101.86438980,-155.38460583
20.90479705,29.17400735,36.39750901,2.33014339,0.50111714,-3.08587739

>  <Name>
ligand

>  <RI>
0

>  <Rbt.Current_Directory>
/home/itssahil/PROJECTS/Mol_Feturizer/New_Systems/rnas/4p3s

>  <Rbt.Executable>
rbdock ($Id: //depot/dev/client3/rdock/2013.1/src/exe/rbdock.cxx#4 $)

>  <Rbt.Library>
libRbt.so (2013.1, Build901 2013/11/27)

>  <Rbt.Parameter_File>
/export/apps/rDock/src/rDock_2013.1_src/data/scripts/dock_solv.prm

>  <Rbt.Receptor>
prm/pocket_docking_2.prm

>  <SCORE>
-18.8395

>  <SCORE.INTER>
-17.1504

>  <SCORE.INTER.CONST>
1

>  <SCORE.INTER.POLAR>
0

>  <SCORE.INTER.ROT>
6

>  <SCORE.INTER.SOLV>
21.8929

>  <SCORE.INTER.VDW>
-26.3312

>  <SCORE.INTER.norm>
-0.504423

>  <SCORE.INTRA>
-1.68917

>  <SCORE.INTRA.DIHEDRAL>
-4.01987

>  <SCORE.INTRA.DIHEDRAL.0>
15.8194

>  <SCORE.INTRA.POLAR>
0

>  <SCORE.INTRA.POLAR.0>
0

>  <SCORE.INTRA.REPUL>
0

>  <SCORE.INTRA.REPUL.0>
0

>  <SCORE.INTRA.SOLV>
0.110046

>  <SCORE.INTRA.SOLV.lig_0>
-71.9159

>  <SCORE.INTRA.VDW>
0.265743

>  <SCORE.INTRA.VDW.0>
-3.53918

>  <SCORE.INTRA.norm>
-0.0496815

>  <SCORE.RESTR>
0

>  <SCORE.RESTR.CAVITY>
0

>  <SCORE.RESTR.norm>
0

>  <SCORE.SYSTEM>
0

>  <SCORE.SYSTEM.CONST>
0

>  <SCORE.SYSTEM.DIHEDRAL>
0

>  <SCORE.SYSTEM.SOLV>
0

>  <SCORE.SYSTEM.norm>
0

>  <SCORE.heavy>
34

>  <SCORE.norm>
-0.554104

>  <RMSD>
0.571

$$$$
ligand
 OpenBabel01301917533D
libRbt.so/2013.1/901 2013/11/27
 34 36  0  0  0  0  0  0  0  0999 V2000
   18.5801   28.1210   34.8417 C   0  0  2  0  0  0  0  0  0  0  0  0
   19.0206   27.7591   36.1544 O   0  0  0  0  0  0  0  0  0  0  0  0
   22.5903   28.2000   38.4920 C   0  0  2  0  0  0  0  0  0  0  0  0
   23.9941   28.1514   38.9230 N   0  0  0  0  0  0  0  0  0  0  0  0
   24.1557   31.0061   37.2858 C   0  0  2  0  0  0  0  0  0  0  0  0
   17.0129   28.2741   34.8778 C   0  0  2  0  0  0  0  0  0  0  0  0
   16.6079   29.2985   35.8538 N   0  0  0  0  0  0  0  0  0  0  0  0
   22.1636   26.7431   38.0863 C   0  0  0  0  0  0  0  0  0  0  0  0
   24.4999   32.1026   38.3696 C   0  0  2  0  0  0  0  0  0  0  0  0
   24.5463   31.5207   39.6610 O   0  0  0  0  0  0  0  0  0  0  0  0
   16.3467   26.9090   35.2267 C   0  0  1  0  0  0  0  0  0  0  0  0
   14.9139   27.0444   35.2609 O   0  0  0  0  0  0  0  0  0  0  0  0
   20.6587   26.7926   37.6447 C   0  0  2  0  0  0  0  0  0  0  0  0
   20.1852   25.4387   37.2382 N   0  0  0  0  0  0  0  0  0  0  0  0
   23.3869   33.2162   38.3120 C   0  0  1  0  0  0  0  0  0  0  0  0
   23.6312   34.2576   39.3301 N   0  0  0  0  0  0  0  0  0  0  0  0
   16.7957   25.8649   34.1778 C   0  0  2  0  0  0  0  0  0  0  0  0
   16.1845   24.6051   34.4732 O   0  0  0  0  0  0  0  0  0  0  0  0
   20.4632   27.7732   36.4490 C   0  0  2  0  0  0  0  0  0  0  0  0
   23.3708   33.8458   36.8831 C   0  0  1  0  0  0  0  0  0  0  0  0
   24.6367   34.4524   36.6446 O   0  0  0  0  0  0  0  0  0  0  0  0
   18.3817   25.7647   34.2025 C   0  0  2  0  0  0  0  0  0  0  0  0
   18.9940   27.0787   33.9053 O   0  0  0  0  0  0  0  0  0  0  0  0
   20.9570   29.1861   36.8628 C   0  0  2  0  0  0  0  0  0  0  0  0
   20.7968   30.0548   35.7432 O   0  0  0  0  0  0  0  0  0  0  0  0
   23.1158   32.7146   35.8358 C   0  0  0  0  0  0  0  0  0  0  0  0
   24.1257   31.6353   35.9509 O   0  0  0  0  0  0  0  0  0  0  0  0
   18.9336   24.7373   33.1728 C   0  0  2  0  0  0  0  0  0  0  0  0
   20.3584   24.6654   33.2953 O   0  0  0  0  0  0  0  0  0  0  0  0
   22.4563   29.1819   37.2510 C   0  0  1  0  0  0  0  0  0  0  0  0
   22.8182   30.5337   37.6463 O   0  0  0  0  0  0  0  0  0  0  0  0
   18.6100   25.1270   31.7473 C   0  0  0  0  0  0  0  0  0  0  0  0
   22.2984   34.9267   36.7400 C   0  0  0  0  0  0  0  0  0  0  0  0
   22.8694   33.8785   40.5453 C   0  0  0  0  0  0  0  0  0  0  0  0
  1  2  1  1  0  0  0
  1  6  1  0  0  0  0
  1 23  1  0  0  0  0
  3  4  1  6  0  0  0
  3  8  1  0  0  0  0
  3 30  1  0  0  0  0
  5  9  1  0  0  0  0
  5 27  1  0  0  0  0
  5 31  1  1  0  0  0
  6  7  1  1  0  0  0
  6 11  1  0  0  0  0
  8 13  1  0  0  0  0
  9 10  1  1  0  0  0
  9 15  1  0  0  0  0
 11 12  1  6  0  0  0
 11 17  1  0  0  0  0
 13 14  1  6  0  0  0
 13 19  1  0  0  0  0
 15 16  1  1  0  0  0
 15 20  1  0  0  0  0
 16 34  1  0  0  0  0
 17 18  1  1  0  0  0
 17 22  1  0  0  0  0
 19  2  1  1  0  0  0
 19 24  1  0  0  0  0
 20 21  1  6  0  0  0
 20 26  1  0  0  0  0
 20 33  1  0  0  0  0
 22 23  1  6  0  0  0
 22 28  1  0  0  0  0
 24 25  1  6  0  0  0
 24 30  1  0  0  0  0
 26 27  1  0  0  0  0
 28 29  1  6  0  0  0
 28 32  1  0  0  0  0
 30 31  1  1  0  0  0
M  END
>  <CHROM.1>
-169.88871089,-156.09392634,-92.92473871,-177.62407316,100.89567135,-153.59707147
20.83458341,29.15108295,36.36602112,2.34609666,0.50578601,-3.09090392

>  <Name>
ligand

>  <RI>
0

>  <Rbt.Current_Directory>
/home/itssahil/PROJECTS/Mol_Feturizer/New_Systems/rnas/4p3s

>  <Rbt.Executable>
rbdock ($Id: //depot/dev/client3/rdock/2013.1/src/exe/rbdock.cxx#4 $)

>  <Rbt.Library>
libRbt.so (2013.1, Build901 2013/11/27)

>  <Rbt.Parameter_File>
/export/apps/rDock/src/rDock_2013.1_src/data/scripts/dock_solv.prm

>  <Rbt.Receptor>
prm/pocket_docking_2.prm

>  <SCORE>
-18.8478

>  <SCORE.INTER>
-17.327

>  <SCORE.INTER.CONST>
1

>  <SCORE.INTER.POLAR>
0

>  <SCORE.INTER.ROT>
6

>  <SCORE.INTER.SOLV>
21.7775

>  <SCORE.INTER.VDW>
-26.4105

>  <SCORE.INTER.norm>
-0.509617

>  <SCORE.INTRA>
-1.52078

>  <SCORE.INTRA.DIHEDRAL>
-3.68153

>  <SCORE.INTRA.DIHEDRAL.0>
15.8194

>  <SCORE.INTRA.POLAR>
0

>  <SCORE.INTRA.POLAR.0>
0

>  <SCORE.INTRA.REPUL>
0

>  <SCORE.INTRA.REPUL.0>
0

>  <SCORE.INTRA.SOLV>
0.260205

>  <SCORE.INTRA.SOLV.lig_0>
-71.9159

>  <SCORE.INTRA.VDW>
0.189887

>  <SCORE.INTRA.VDW.0>
-3.53918

>  <SCORE.INTRA.norm>
-0.0447287

>  <SCORE.RESTR>
0

>  <SCORE.RESTR.CAVITY>
0

>  <SCORE.RESTR.norm>
0

>  <SCORE.SYSTEM>
0

>  <SCORE.SYSTEM.CONST>
0

>  <SCORE.SYSTEM.DIHEDRAL>
0

>  <SCORE.SYSTEM.SOLV>
0

>  <SCORE.SYSTEM.norm>
0

>  <SCORE.heavy>
34

>  <SCORE.norm>
-0.554346

>  <RMSD>
0.573

$$$$
ligand
 OpenBabel01301917533D
libRbt.so/2013.1/901 2013/11/27
 34 36  0  0  0  0  0  0  0  0999 V2000
   18.6435   27.9703   34.8999 C   0  0  2  0  0  0  0  0  0  0  0  0
   19.0863   27.5765   36.2027 O   0  0  0  0  0  0  0  0  0  0  0  0
   22.6131   28.2449   38.5516 C   0  0  2  0  0  0  0  0  0  0  0  0
   24.0113   28.2545   39.0026 N   0  0  0  0  0  0  0  0  0  0  0  0
   24.1448   30.9932   37.2024 C   0  0  2  0  0  0  0  0  0  0  0  0
   17.0745   28.1021   34.9370 C   0  0  2  0  0  0  0  0  0  0  0  0
   16.6545   29.0927   35.9412 N   0  0  0  0  0  0  0  0  0  0  0  0
   22.2218   26.7560   38.2369 C   0  0  0  0  0  0  0  0  0  0  0  0
   24.5004   32.0645   38.3076 C   0  0  2  0  0  0  0  0  0  0  0  0
   24.5469   31.4555   39.5864 O   0  0  0  0  0  0  0  0  0  0  0  0
   16.4253   26.7191   35.2452 C   0  0  1  0  0  0  0  0  0  0  0  0
   14.9908   26.8350   35.2802 O   0  0  0  0  0  0  0  0  0  0  0  0
   20.7226   26.7445   37.7738 C   0  0  2  0  0  0  0  0  0  0  0  0
   20.2827   25.3572   37.4510 N   0  0  0  0  0  0  0  0  0  0  0  0
   23.3951   33.1868   38.2770 C   0  0  1  0  0  0  0  0  0  0  0  0
   23.6502   34.2051   39.3157 N   0  0  0  0  0  0  0  0  0  0  0  0
   16.8897   25.7114   34.1677 C   0  0  2  0  0  0  0  0  0  0  0  0
   16.2944   24.4358   34.4255 O   0  0  0  0  0  0  0  0  0  0  0  0
   20.5241   27.6405   36.5140 C   0  0  2  0  0  0  0  0  0  0  0  0
   23.3787   33.8461   36.8616 C   0  0  1  0  0  0  0  0  0  0  0  0
   24.6481   34.4486   36.6313 O   0  0  0  0  0  0  0  0  0  0  0  0
   18.4769   25.6309   34.1930 C   0  0  2  0  0  0  0  0  0  0  0  0
   19.0726   26.9608   33.9349 O   0  0  0  0  0  0  0  0  0  0  0  0
   20.9831   29.0877   36.8405 C   0  0  2  0  0  0  0  0  0  0  0  0
   20.8210   29.8778   35.6645 O   0  0  0  0  0  0  0  0  0  0  0  0
   23.1122   32.7388   35.7919 C   0  0  0  0  0  0  0  0  0  0  0  0
   24.1148   31.6502   35.8810 O   0  0  0  0  0  0  0  0  0  0  0  0
   19.0438   24.6408   33.1354 C   0  0  2  0  0  0  0  0  0  0  0  0
   20.4737   24.6382   33.2104 O   0  0  0  0  0  0  0  0  0  0  0  0
   22.4765   29.1407   37.2472 C   0  0  1  0  0  0  0  0  0  0  0  0
   22.8052   30.5228   37.5577 O   0  0  0  0  0  0  0  0  0  0  0  0
   18.6542   25.0261   31.7253 C   0  0  0  0  0  0  0  0  0  0  0  0
   22.3136   34.9373   36.7446 C   0  0  0  0  0  0  0  0  0  0  0  0
   22.8627   33.8246   40.5140 C   0  0  0  0  0  0  0  0  0  0  0  0
  1  2  1  1  0  0  0
  1  6  1  0  0  0  0
  1 23  1  0  0  0  0
  3  4  1  6  0  0  0
  3  8  1  0  0  0  0
  3 30  1  0  0  0  0
  5  9  1  0  0  0  0
  5 27  1  0  0  0  0
  5 31  1  1  0  0  0
  6  7  1  1  0  0  0
  6 11  1  0  0  0  0
  8 13  1  0  0  0  0
  9 10  1  1  0  0  0
  9 15  1  0  0  0  0
 11 12  1  6  0  0  0
 11 17  1  0  0  0  0
 13 14  1  6  0  0  0
 13 19  1  0  0  0  0
 15 16  1  1  0  0  0
 15 20  1  0  0  0  0
 16 34  1  0  0  0  0
 17 18  1  1  0  0  0
 17 22  1  0  0  0  0
 19  2  1  1  0  0  0
 19 24  1  0  0  0  0
 20 21  1  6  0  0  0
 20 26  1  0  0  0  0
 20 33  1  0  0  0  0
 22 23  1  6  0  0  0
 22 28  1  0  0  0  0
 24 25  1  6  0  0  0
 24 30  1  0  0  0  0
 26 27  1  0  0  0  0
 28 29  1  6  0  0  0
 28 32  1  0  0  0  0
 30 31  1  1  0  0  0
M  END
>  <CHROM.1>
-168.01675568,-162.19967464,-94.33102733,179.27987277,99.99005432,-147.95828669
20.87712008,29.07570963,36.36912000,2.35475004,0.54652997,-3.13785506

>  <Name>
ligand

>  <RI>
0

>  <Rbt.Current_Directory>
/home/itssahil/PROJECTS/Mol_Feturizer/New_Systems/rnas/4p3s

>  <Rbt.Executable>
rbdock ($Id: //depot/dev/client3/rdock/2013.1/src/exe/rbdock.cxx#4 $)

>  <Rbt.Library>
libRbt.so (2013.1, Build901 2013/11/27)

>  <Rbt.Parameter_File>
/export/apps/rDock/src/rDock_2013.1_src/data/scripts/dock_solv.prm

>  <Rbt.Receptor>
prm/pocket_docking_2.prm

>  <SCORE>
-18.8271

>  <SCORE.INTER>
-17.3767

>  <SCORE.INTER.CONST>
1

>  <SCORE.INTER.POLAR>
0

>  <SCORE.INTER.ROT>
6

>  <SCORE.INTER.SOLV>
21.9887

>  <SCORE.INTER.VDW>
-26.514

>  <SCORE.INTER.norm>
-0.51108

>  <SCORE.INTRA>
-1.45036

>  <SCORE.INTRA.DIHEDRAL>
-3.57751

>  <SCORE.INTRA.DIHEDRAL.0>
15.8194

>  <SCORE.INTRA.POLAR>
0

>  <SCORE.INTRA.POLAR.0>
0

>  <SCORE.INTRA.REPUL>
0

>  <SCORE.INTRA.REPUL.0>
0

>  <SCORE.INTRA.SOLV>
-0.0794999

>  <SCORE.INTRA.SOLV.lig_0>
-71.9159

>  <SCORE.INTRA.VDW>
0.378145

>  <SCORE.INTRA.VDW.0>
-3.53918

>  <SCORE.INTRA.norm>
-0.0426577

>  <SCORE.RESTR>
0

>  <SCORE.RESTR.CAVITY>
0

>  <SCORE.RESTR.norm>
0

>  <SCORE.SYSTEM>
0

>  <SCORE.SYSTEM.CONST>
0

>  <SCORE.SYSTEM.DIHEDRAL>
0

>  <SCORE.SYSTEM.SOLV>
0

>  <SCORE.SYSTEM.norm>
0

>  <SCORE.heavy>
34

>  <SCORE.norm>
-0.553738

>  <RMSD>
0.576

$$$$
ligand
 OpenBabel01301917533D
libRbt.so/2013.1/901 2013/11/27
 34 36  0  0  0  0  0  0  0  0999 V2000
   18.5658   28.1664   34.8289 C   0  0  2  0  0  0  0  0  0  0  0  0
   19.0047   27.8199   36.1463 O   0  0  0  0  0  0  0  0  0  0  0  0
   22.5803   28.2487   38.4774 C   0  0  2  0  0  0  0  0  0  0  0  0
   23.9842   28.1930   38.9069 N   0  0  0  0  0  0  0  0  0  0  0  0
   24.1598   31.0412   37.2474 C   0  0  2  0  0  0  0  0  0  0  0  0
   16.9954   28.2845   34.8532 C   0  0  2  0  0  0  0  0  0  0  0  0
   16.5605   29.3036   35.8218 N   0  0  0  0  0  0  0  0  0  0  0  0
   22.1432   26.7927   38.0796 C   0  0  0  0  0  0  0  0  0  0  0  0
   24.5151   32.1437   38.3214 C   0  0  2  0  0  0  0  0  0  0  0  0
   24.5672   31.5706   39.6165 O   0  0  0  0  0  0  0  0  0  0  0  0
   16.3573   26.9063   35.2032 C   0  0  1  0  0  0  0  0  0  0  0  0
   14.9216   27.0097   35.2266 O   0  0  0  0  0  0  0  0  0  0  0  0
   20.6381   26.8501   37.6395 C   0  0  2  0  0  0  0  0  0  0  0  0
   20.1551   25.4974   37.2405 N   0  0  0  0  0  0  0  0  0  0  0  0
   23.4060   33.2613   38.2631 C   0  0  1  0  0  0  0  0  0  0  0  0
   23.6609   34.3087   39.2724 N   0  0  0  0  0  0  0  0  0  0  0  0
   16.8372   25.8681   34.1620 C   0  0  2  0  0  0  0  0  0  0  0  0
   16.2522   24.5962   34.4585 O   0  0  0  0  0  0  0  0  0  0  0  0
   20.4478   27.8258   36.4391 C   0  0  2  0  0  0  0  0  0  0  0  0
   23.3834   33.8811   36.8300 C   0  0  1  0  0  0  0  0  0  0  0  0
   24.6502   34.4811   36.5794 O   0  0  0  0  0  0  0  0  0  0  0  0
   18.4249   25.8036   34.1986 C   0  0  2  0  0  0  0  0  0  0  0  0
   19.0097   27.1298   33.9000 O   0  0  0  0  0  0  0  0  0  0  0  0
   20.9516   29.2375   36.8451 C   0  0  2  0  0  0  0  0  0  0  0  0
   20.7958   30.1016   35.7213 O   0  0  0  0  0  0  0  0  0  0  0  0
   23.1174   32.7437   35.7921 C   0  0  0  0  0  0  0  0  0  0  0  0
   24.1238   31.6613   35.9084 O   0  0  0  0  0  0  0  0  0  0  0  0
   19.0070   24.7845   33.1773 C   0  0  2  0  0  0  0  0  0  0  0  0
   20.4351   24.7767   33.2806 O   0  0  0  0  0  0  0  0  0  0  0  0
   22.4512   29.2252   37.2315 C   0  0  1  0  0  0  0  0  0  0  0  0
   22.8227   30.5765   37.6195 O   0  0  0  0  0  0  0  0  0  0  0  0
   18.6473   25.1365   31.7507 C   0  0  0  0  0  0  0  0  0  0  0  0
   22.3144   34.9652   36.6861 C   0  0  0  0  0  0  0  0  0  0  0  0
   22.8893   33.9515   40.4881 C   0  0  0  0  0  0  0  0  0  0  0  0
  1  2  1  1  0  0  0
  1  6  1  0  0  0  0
  1 23  1  0  0  0  0
  3  4  1  6  0  0  0
  3  8  1  0  0  0  0
  3 30  1  0  0  0  0
  5  9  1  0  0  0  0
  5 27  1  0  0  0  0
  5 31  1  1  0  0  0
  6  7  1  1  0  0  0
  6 11  1  0  0  0  0
  8 13  1  0  0  0  0
  9 10  1  1  0  0  0
  9 15  1  0  0  0  0
 11 12  1  6  0  0  0
 11 17  1  0  0  0  0
 13 14  1  6  0  0  0
 13 19  1  0  0  0  0
 15 16  1  1  0  0  0
 15 20  1  0  0  0  0
 16 34  1  0  0  0  0
 17 18  1  1  0  0  0
 17 22  1  0  0  0  0
 19  2  1  1  0  0  0
 19 24  1  0  0  0  0
 20 21  1  6  0  0  0
 20 26  1  0  0  0  0
 20 33  1  0  0  0  0
 22 23  1  6  0  0  0
 22 28  1  0  0  0  0
 24 25  1  6  0  0  0
 24 30  1  0  0  0  0
 26 27  1  0  0  0  0
 28 29  1  6  0  0  0
 28 32  1  0  0  0  0
 30 31  1  1  0  0  0
M  END
>  <CHROM.1>
-171.82491913,-155.53511697,-93.74363664,-179.46896656,101.28296481,-153.81759184
20.84438383,29.18883348,36.34018787,2.34727939,0.50749857,-3.09884385

>  <Name>
ligand

>  <RI>
0

>  <Rbt.Current_Directory>
/home/itssahil/PROJECTS/Mol_Feturizer/New_Systems/rnas/4p3s

>  <Rbt.Executable>
rbdock ($Id: //depot/dev/client3/rdock/2013.1/src/exe/rbdock.cxx#4 $)

>  <Rbt.Library>
libRbt.so (2013.1, Build901 2013/11/27)

>  <Rbt.Parameter_File>
/export/apps/rDock/src/rDock_2013.1_src/data/scripts/dock_solv.prm

>  <Rbt.Receptor>
prm/pocket_docking_8.prm

>  <SCORE>
-18.9321

>  <SCORE.INTER>
-17.3515

>  <SCORE.INTER.CONST>
1

>  <SCORE.INTER.POLAR>
0

>  <SCORE.INTER.ROT>
6

>  <SCORE.INTER.SOLV>
21.986

>  <SCORE.INTER.VDW>
-26.4963

>  <SCORE.INTER.norm>
-0.510338

>  <SCORE.INTRA>
-1.58062

>  <SCORE.INTRA.DIHEDRAL>
-3.72725

>  <SCORE.INTRA.DIHEDRAL.0>
15.8194

>  <SCORE.INTRA.POLAR>
0

>  <SCORE.INTRA.POLAR.0>
0

>  <SCORE.INTRA.REPUL>
0

>  <SCORE.INTRA.REPUL.0>
0

>  <SCORE.INTRA.SOLV>
0.285645

>  <SCORE.INTRA.SOLV.lig_0>
-71.9159

>  <SCORE.INTRA.VDW>
0.140188

>  <SCORE.INTRA.VDW.0>
-3.53918

>  <SCORE.INTRA.norm>
-0.0464887

>  <SCORE.RESTR>
0

>  <SCORE.RESTR.CAVITY>
0

>  <SCORE.RESTR.norm>
0

>  <SCORE.SYSTEM>
0

>  <SCORE.SYSTEM.CONST>
0

>  <SCORE.SYSTEM.DIHEDRAL>
0

>  <SCORE.SYSTEM.SOLV>
0

>  <SCORE.SYSTEM.norm>
0

>  <SCORE.heavy>
34

>  <SCORE.norm>
-0.556827

>  <RMSD>
0.581

$$$$
ligand
 OpenBabel01301917533D
libRbt.so/2013.1/901 2013/11/27
 34 36  0  0  0  0  0  0  0  0999 V2000
   18.5731   28.1109   34.8174 C   0  0  2  0  0  0  0  0  0  0  0  0
   19.0141   27.7621   36.1335 O   0  0  0  0  0  0  0  0  0  0  0  0
   22.5864   28.1945   38.4687 C   0  0  2  0  0  0  0  0  0  0  0  0
   23.9907   28.1448   38.8977 N   0  0  0  0  0  0  0  0  0  0  0  0
   24.1583   30.9974   37.2977 C   0  0  2  0  0  0  0  0  0  0  0  0
   17.0054   28.2588   34.8513 C   0  0  2  0  0  0  0  0  0  0  0  0
   16.5963   29.2904   35.8180 N   0  0  0  0  0  0  0  0  0  0  0  0
   22.1601   26.7392   38.0569 C   0  0  0  0  0  0  0  0  0  0  0  0
   24.4901   32.0891   38.3901 C   0  0  2  0  0  0  0  0  0  0  0  0
   24.5103   31.5038   39.6806 O   0  0  0  0  0  0  0  0  0  0  0  0
   16.3437   26.8946   35.2119 C   0  0  1  0  0  0  0  0  0  0  0  0
   14.9104   27.0254   35.2441 O   0  0  0  0  0  0  0  0  0  0  0  0
   20.6546   26.7898   37.6173 C   0  0  2  0  0  0  0  0  0  0  0  0
   20.1815   25.4375   37.2052 N   0  0  0  0  0  0  0  0  0  0  0  0
   23.3850   33.2096   38.3159 C   0  0  1  0  0  0  0  0  0  0  0  0
   23.6177   34.2470   39.3408 N   0  0  0  0  0  0  0  0  0  0  0  0
   16.7970   25.8428   34.1724 C   0  0  2  0  0  0  0  0  0  0  0  0
   16.1899   24.5836   34.4787 O   0  0  0  0  0  0  0  0  0  0  0  0
   20.4571   27.7758   36.4264 C   0  0  2  0  0  0  0  0  0  0  0  0
   23.3977   33.8427   36.8885 C   0  0  1  0  0  0  0  0  0  0  0  0
   24.6712   34.4422   36.6738 O   0  0  0  0  0  0  0  0  0  0  0  0
   18.3833   25.7483   34.1990 C   0  0  2  0  0  0  0  0  0  0  0  0
   18.9912   27.0618   33.8904 O   0  0  0  0  0  0  0  0  0  0  0  0
   20.9505   29.1871   36.8460 C   0  0  2  0  0  0  0  0  0  0  0  0
   20.7884   30.0608   35.7307 O   0  0  0  0  0  0  0  0  0  0  0  0
   23.1542   32.7157   35.8340 C   0  0  0  0  0  0  0  0  0  0  0  0
   24.1554   31.6300   35.9640 O   0  0  0  0  0  0  0  0  0  0  0  0
   18.9393   24.7138   33.1786 C   0  0  2  0  0  0  0  0  0  0  0  0
   20.3624   24.6347   33.3150 O   0  0  0  0  0  0  0  0  0  0  0  0
   22.4502   29.1820   37.2324 C   0  0  1  0  0  0  0  0  0  0  0  0
   22.8118   30.5322   37.6335 O   0  0  0  0  0  0  0  0  0  0  0  0
   18.6313   25.0995   31.7486 C   0  0  0  0  0  0  0  0  0  0  0  0
   22.3346   34.9305   36.7294 C   0  0  0  0  0  0  0  0  0  0  0  0
   22.8066   33.8871   40.5296 C   0  0  0  0  0  0  0  0  0  0  0  0
  1  2  1  1  0  0  0
  1  6  1  0  0  0  0
  1 23  1  0  0  0  0
  3  4  1  6  0  0  0
  3  8  1  0  0  0  0
  3 30  1  0  0  0  0
  5  9  1  0  0  0  0
  5 27  1  0  0  0  0
  5 31  1  1  0  0  0
  6  7  1  1  0  0  0
  6 11  1  0  0  0  0
  8 13  1  0  0  0  0
  9 10  1  1  0  0  0
  9 15  1  0  0  0  0
 11 12  1  6  0  0  0
 11 17  1  0  0  0  0
 13 14  1  6  0  0  0
 13 19  1  0  0  0  0
 15 16  1  1  0  0  0
 15 20  1  0  0  0  0
 16 34  1  0  0  0  0
 17 18  1  1  0  0  0
 17 22  1  0  0  0  0
 19  2  1  1  0  0  0
 19 24  1  0  0  0  0
 20 21  1  6  0  0  0
 20 26  1  0  0  0  0
 20 33  1  0  0  0  0
 22 23  1  6  0  0  0
 22 28  1  0  0  0  0
 24 25  1  6  0  0  0
 24 30  1  0  0  0  0
 26 27  1  0  0  0  0
 28 29  1  6  0  0  0
 28 32  1  0  0  0  0
 30 31  1  1  0  0  0
M  END
>  <CHROM.1>
-170.26269206,-155.19045624,-94.27858888,-176.85099610,99.67203713,-153.39704082
20.83429492,29.14230549,36.35855554,2.33930733,0.49567929,-3.07887631

>  <Name>
ligand

>  <RI>
0

>  <Rbt.Current_Directory>
/home/itssahil/PROJECTS/Mol_Feturizer/New_Systems/rnas/4p3s

>  <Rbt.Executable>
rbdock ($Id: //depot/dev/client3/rdock/2013.1/src/exe/rbdock.cxx#4 $)

>  <Rbt.Library>
libRbt.so (2013.1, Build901 2013/11/27)

>  <Rbt.Parameter_File>
/export/apps/rDock/src/rDock_2013.1_src/data/scripts/dock_solv.prm

>  <Rbt.Receptor>
prm/pocket_docking_2.prm

>  <SCORE>
-18.878

>  <SCORE.INTER>
-17.3509

>  <SCORE.INTER.CONST>
1

>  <SCORE.INTER.POLAR>
0

>  <SCORE.INTER.ROT>
6

>  <SCORE.INTER.SOLV>
21.8163

>  <SCORE.INTER.VDW>
-26.4393

>  <SCORE.INTER.norm>
-0.510319

>  <SCORE.INTRA>
-1.52717

>  <SCORE.INTRA.DIHEDRAL>
-3.65249

>  <SCORE.INTRA.DIHEDRAL.0>
15.8194

>  <SCORE.INTRA.POLAR>
0

>  <SCORE.INTRA.POLAR.0>
0

>  <SCORE.INTRA.REPUL>
0

>  <SCORE.INTRA.REPUL.0>
0

>  <SCORE.INTRA.SOLV>
0.367157

>  <SCORE.INTRA.SOLV.lig_0>
-71.9159

>  <SCORE.INTRA.VDW>
0.115498

>  <SCORE.INTRA.VDW.0>
-3.53918

>  <SCORE.INTRA.norm>
-0.0449168

>  <SCORE.RESTR>
0

>  <SCORE.RESTR.CAVITY>
0

>  <SCORE.RESTR.norm>
0

>  <SCORE.SYSTEM>
0

>  <SCORE.SYSTEM.CONST>
0

>  <SCORE.SYSTEM.DIHEDRAL>
0

>  <SCORE.SYSTEM.SOLV>
0

>  <SCORE.SYSTEM.norm>
0

>  <SCORE.heavy>
34

>  <SCORE.norm>
-0.555236

>  <RMSD>
0.587

$$$$
ligand
 OpenBabel01301917533D
libRbt.so/2013.1/901 2013/11/27
 34 36  0  0  0  0  0  0  0  0999 V2000
   18.5821   28.1098   34.8821 C   0  0  2  0  0  0  0  0  0  0  0  0
   19.0360   27.7399   36.1880 O   0  0  0  0  0  0  0  0  0  0  0  0
   22.6217   28.2073   38.4959 C   0  0  2  0  0  0  0  0  0  0  0  0
   24.0291   28.1675   38.9159 N   0  0  0  0  0  0  0  0  0  0  0  0
   24.1726   31.0080   37.2927 C   0  0  2  0  0  0  0  0  0  0  0  0
   17.0124   28.2308   34.9272 C   0  0  2  0  0  0  0  0  0  0  0  0
   16.5915   29.2341   35.9183 N   0  0  0  0  0  0  0  0  0  0  0  0
   22.1994   26.7469   38.0983 C   0  0  0  0  0  0  0  0  0  0  0  0
   24.5166   32.0917   38.3894 C   0  0  2  0  0  0  0  0  0  0  0  0
   24.5524   31.4966   39.6751 O   0  0  0  0  0  0  0  0  0  0  0  0
   16.3753   26.8482   35.2612 C   0  0  1  0  0  0  0  0  0  0  0  0
   14.9403   26.9543   35.3035 O   0  0  0  0  0  0  0  0  0  0  0  0
   20.6909   26.7870   37.6684 C   0  0  2  0  0  0  0  0  0  0  0  0
   20.2214   25.4293   37.2701 N   0  0  0  0  0  0  0  0  0  0  0  0
   23.4100   33.2119   38.3366 C   0  0  1  0  0  0  0  0  0  0  0  0
   23.6542   34.2417   39.3666 N   0  0  0  0  0  0  0  0  0  0  0  0
   16.8404   25.8270   34.1968 C   0  0  2  0  0  0  0  0  0  0  0  0
   16.2560   24.5514   34.4784 O   0  0  0  0  0  0  0  0  0  0  0  0
   20.4808   27.7626   36.4711 C   0  0  2  0  0  0  0  0  0  0  0  0
   23.4055   33.8558   36.9141 C   0  0  1  0  0  0  0  0  0  0  0  0
   24.6760   34.4579   36.6889 O   0  0  0  0  0  0  0  0  0  0  0  0
   18.4282   25.7584   34.2132 C   0  0  2  0  0  0  0  0  0  0  0  0
   19.0125   27.0883   33.9303 O   0  0  0  0  0  0  0  0  0  0  0  0
   20.9704   29.1794   36.8764 C   0  0  2  0  0  0  0  0  0  0  0  0
   20.7967   30.0436   35.7553 O   0  0  0  0  0  0  0  0  0  0  0  0
   23.1503   32.7366   35.8541 C   0  0  0  0  0  0  0  0  0  0  0  0
   24.1537   31.6507   35.9640 O   0  0  0  0  0  0  0  0  0  0  0  0
   18.9957   24.7558   33.1677 C   0  0  2  0  0  0  0  0  0  0  0  0
   20.4243   24.7342   33.2619 O   0  0  0  0  0  0  0  0  0  0  0  0
   22.4726   29.1844   37.2527 C   0  0  1  0  0  0  0  0  0  0  0  0
   22.8305   30.5394   37.6408 O   0  0  0  0  0  0  0  0  0  0  0  0
   18.6303   25.1399   31.7508 C   0  0  0  0  0  0  0  0  0  0  0  0
   22.3399   34.9441   36.7757 C   0  0  0  0  0  0  0  0  0  0  0  0
   22.8616   33.8694   40.5640 C   0  0  0  0  0  0  0  0  0  0  0  0
  1  2  1  1  0  0  0
  1  6  1  0  0  0  0
  1 23  1  0  0  0  0
  3  4  1  6  0  0  0
  3  8  1  0  0  0  0
  3 30  1  0  0  0  0
  5  9  1  0  0  0  0
  5 27  1  0  0  0  0
  5 31  1  1  0  0  0
  6  7  1  1  0  0  0
  6 11  1  0  0  0  0
  8 13  1  0  0  0  0
  9 10  1  1  0  0  0
  9 15  1  0  0  0  0
 11 12  1  6  0  0  0
 11 17  1  0  0  0  0
 13 14  1  6  0  0  0
 13 19  1  0  0  0  0
 15 16  1  1  0  0  0
 15 20  1  0  0  0  0
 16 34  1  0  0  0  0
 17 18  1  1  0  0  0
 17 22  1  0  0  0  0
 19  2  1  1  0  0  0
 19 24  1  0  0  0  0
 20 21  1  6  0  0  0
 20 26  1  0  0  0  0
 20 33  1  0  0  0  0
 22 23  1  6  0  0  0
 22 28  1  0  0  0  0
 24 25  1  6  0  0  0
 24 30  1  0  0  0  0
 26 27  1  0  0  0  0
 28 29  1  6  0  0  0
 28 32  1  0  0  0  0
 30 31  1  1  0  0  0
M  END
>  <CHROM.1>
-170.66801318,-156.79506140,-94.05775178,-178.95225457,99.65618746,-152.43033700
20.86025120,29.14300937,36.38526098,2.34131080,0.50002229,-3.08492531

>  <Name>
ligand

>  <RI>
0

>  <Rbt.Current_Directory>
/home/itssahil/PROJECTS/Mol_Feturizer/New_Systems/rnas/4p3s

>  <Rbt.Executable>
rbdock ($Id: //depot/dev/client3/rdock/2013.1/src/exe/rbdock.cxx#4 $)

>  <Rbt.Library>
libRbt.so (2013.1, Build901 2013/11/27)

>  <Rbt.Parameter_File>
/export/apps/rDock/src/rDock_2013.1_src/data/scripts/dock_solv.prm

>  <Rbt.Receptor>
prm/pocket_docking_2.prm

>  <SCORE>
-18.9427

>  <SCORE.INTER>
-17.3224

>  <SCORE.INTER.CONST>
1

>  <SCORE.INTER.POLAR>
0

>  <SCORE.INTER.ROT>
6

>  <SCORE.INTER.SOLV>
21.9342

>  <SCORE.INTER.VDW>
-26.4596

>  <SCORE.INTER.norm>
-0.509481

>  <SCORE.INTRA>
-1.6206

>  <SCORE.INTRA.DIHEDRAL>
-3.84267

>  <SCORE.INTRA.DIHEDRAL.0>
15.8194

>  <SCORE.INTRA.POLAR>
0

>  <SCORE.INTRA.POLAR.0>
0

>  <SCORE.INTRA.REPUL>
0

>  <SCORE.INTRA.REPUL.0>
0

>  <SCORE.INTRA.SOLV>
0.22045

>  <SCORE.INTRA.SOLV.lig_0>
-71.9159

>  <SCORE.INTRA.VDW>
0.190505

>  <SCORE.INTRA.VDW.0>
-3.53918

>  <SCORE.INTRA.norm>
-0.0476648

>  <SCORE.RESTR>
0.00029371

>  <SCORE.RESTR.CAVITY>
0.00029371

>  <SCORE.RESTR.norm>
8.63852e-06

>  <SCORE.SYSTEM>
0

>  <SCORE.SYSTEM.CONST>
0

>  <SCORE.SYSTEM.DIHEDRAL>
0

>  <SCORE.SYSTEM.SOLV>
0

>  <SCORE.SYSTEM.norm>
0

>  <SCORE.heavy>
34

>  <SCORE.norm>
-0.557138

>  <RMSD>
0.590

$$$$
ligand
 OpenBabel01301917533D
libRbt.so/2013.1/901 2013/11/27
 34 36  0  0  0  0  0  0  0  0999 V2000
   18.6360   28.0806   34.8837 C   0  0  2  0  0  0  0  0  0  0  0  0
   19.0884   27.6942   36.1853 O   0  0  0  0  0  0  0  0  0  0  0  0
   22.6580   28.2151   38.5067 C   0  0  2  0  0  0  0  0  0  0  0  0
   24.0633   28.1905   38.9347 N   0  0  0  0  0  0  0  0  0  0  0  0
   24.1882   31.0191   37.2600 C   0  0  2  0  0  0  0  0  0  0  0  0
   17.0655   28.1926   34.9263 C   0  0  2  0  0  0  0  0  0  0  0  0
   16.6366   29.1791   35.9308 N   0  0  0  0  0  0  0  0  0  0  0  0
   22.2484   26.7470   38.1244 C   0  0  0  0  0  0  0  0  0  0  0  0
   24.5311   32.1139   38.3459 C   0  0  2  0  0  0  0  0  0  0  0  0
   24.5863   31.5280   39.6352 O   0  0  0  0  0  0  0  0  0  0  0  0
   16.4350   26.8019   35.2385 C   0  0  1  0  0  0  0  0  0  0  0  0
   14.9993   26.8996   35.2786 O   0  0  0  0  0  0  0  0  0  0  0  0
   20.7419   26.7711   37.6860 C   0  0  2  0  0  0  0  0  0  0  0  0
   20.2844   25.4053   37.3015 N   0  0  0  0  0  0  0  0  0  0  0  0
   23.4118   33.2215   38.2968 C   0  0  1  0  0  0  0  0  0  0  0  0
   23.6549   34.2609   39.3173 N   0  0  0  0  0  0  0  0  0  0  0  0
   16.9083   25.7987   34.1606 C   0  0  2  0  0  0  0  0  0  0  0  0
   16.3301   24.5161   34.4222 O   0  0  0  0  0  0  0  0  0  0  0  0
   20.5315   27.7307   36.4759 C   0  0  2  0  0  0  0  0  0  0  0  0
   23.3860   33.8557   36.8701 C   0  0  1  0  0  0  0  0  0  0  0  0
   24.6475   34.4700   36.6281 O   0  0  0  0  0  0  0  0  0  0  0  0
   18.4964   25.7384   34.1803 C   0  0  2  0  0  0  0  0  0  0  0  0
   19.0743   27.0754   33.9183 O   0  0  0  0  0  0  0  0  0  0  0  0
   21.0087   29.1558   36.8667 C   0  0  2  0  0  0  0  0  0  0  0  0
   20.8350   30.0052   35.7344 O   0  0  0  0  0  0  0  0  0  0  0  0
   23.1326   32.7266   35.8202 C   0  0  0  0  0  0  0  0  0  0  0  0
   24.1489   31.6525   35.9273 O   0  0  0  0  0  0  0  0  0  0  0  0
   19.0720   24.7542   33.1219 C   0  0  2  0  0  0  0  0  0  0  0  0
   20.5023   24.7763   33.1857 O   0  0  0  0  0  0  0  0  0  0  0  0
   22.5088   29.1761   37.2511 C   0  0  1  0  0  0  0  0  0  0  0  0
   22.8549   30.5381   37.6247 O   0  0  0  0  0  0  0  0  0  0  0  0
   18.6650   25.1275   31.7135 C   0  0  0  0  0  0  0  0  0  0  0  0
   22.3072   34.9312   36.7352 C   0  0  0  0  0  0  0  0  0  0  0  0
   22.9038   33.8715   40.5360 C   0  0  0  0  0  0  0  0  0  0  0  0
  1  2  1  1  0  0  0
  1  6  1  0  0  0  0
  1 23  1  0  0  0  0
  3  4  1  6  0  0  0
  3  8  1  0  0  0  0
  3 30  1  0  0  0  0
  5  9  1  0  0  0  0
  5 27  1  0  0  0  0
  5 31  1  1  0  0  0
  6  7  1  1  0  0  0
  6 11  1  0  0  0  0
  8 13  1  0  0  0  0
  9 10  1  1  0  0  0
  9 15  1  0  0  0  0
 11 12  1  6  0  0  0
 11 17  1  0  0  0  0
 13 14  1  6  0  0  0
 13 19  1  0  0  0  0
 15 16  1  1  0  0  0
 15 20  1  0  0  0  0
 16 34  1  0  0  0  0
 17 18  1  1  0  0  0
 17 22  1  0  0  0  0
 19  2  1  1  0  0  0
 19 24  1  0  0  0  0
 20 21  1  6  0  0  0
 20 26  1  0  0  0  0
 20 33  1  0  0  0  0
 22 23  1  6  0  0  0
 22 28  1  0  0  0  0
 24 25  1  6  0  0  0
 24 30  1  0  0  0  0
 26 27  1  0  0  0  0
 28 29  1  6  0  0  0
 28 32  1  0  0  0  0
 30 31  1  1  0  0  0
M  END
>  <CHROM.1>
-170.18961527,-158.50107835,-92.75175173,178.90375933,100.57134661,-152.34129940
20.89584163,29.13240641,36.36335664,2.34453022,0.52001910,-3.10318320

>  <Name>
ligand

>  <RI>
0

>  <Rbt.Current_Directory>
/home/itssahil/PROJECTS/Mol_Feturizer/New_Systems/rnas/4p3s

>  <Rbt.Executable>
rbdock ($Id: //depot/dev/client3/rdock/2013.1/src/exe/rbdock.cxx#4 $)

>  <Rbt.Library>
libRbt.so (2013.1, Build901 2013/11/27)

>  <Rbt.Parameter_File>
/export/apps/rDock/src/rDock_2013.1_src/data/scripts/dock_solv.prm

>  <Rbt.Receptor>
prm/pocket_docking_2.prm

>  <SCORE>
-18.9652

>  <SCORE.INTER>
-17.3273

>  <SCORE.INTER.CONST>
1

>  <SCORE.INTER.POLAR>
0

>  <SCORE.INTER.ROT>
6

>  <SCORE.INTER.SOLV>
22.1484

>  <SCORE.INTER.VDW>
-26.5343

>  <SCORE.INTER.norm>
-0.509625

>  <SCORE.INTRA>
-1.6536

>  <SCORE.INTRA.DIHEDRAL>
-3.97608

>  <SCORE.INTRA.DIHEDRAL.0>
15.8194

>  <SCORE.INTRA.POLAR>
0

>  <SCORE.INTRA.POLAR.0>
0

>  <SCORE.INTRA.REPUL>
0

>  <SCORE.INTRA.REPUL.0>
0

>  <SCORE.INTRA.SOLV>
0.0500471

>  <SCORE.INTRA.SOLV.lig_0>
-71.9159

>  <SCORE.INTRA.VDW>
0.309414

>  <SCORE.INTRA.VDW.0>
-3.53918

>  <SCORE.INTRA.norm>
-0.0486353

>  <SCORE.RESTR>
0.0156438

>  <SCORE.RESTR.CAVITY>
0.0156438

>  <SCORE.RESTR.norm>
0.000460111

>  <SCORE.SYSTEM>
0

>  <SCORE.SYSTEM.CONST>
0

>  <SCORE.SYSTEM.DIHEDRAL>
0

>  <SCORE.SYSTEM.SOLV>
0

>  <SCORE.SYSTEM.norm>
0

>  <SCORE.heavy>
34

>  <SCORE.norm>
-0.5578

>  <RMSD>
0.595

$$$$
ligand
 OpenBabel01301917533D
libRbt.so/2013.1/901 2013/11/27
 34 36  0  0  0  0  0  0  0  0999 V2000
   18.5788   28.1562   34.8464 C   0  0  2  0  0  0  0  0  0  0  0  0
   19.0297   27.7950   36.1557 O   0  0  0  0  0  0  0  0  0  0  0  0
   22.6167   28.2299   38.4680 C   0  0  2  0  0  0  0  0  0  0  0  0
   24.0239   28.1817   38.8877 N   0  0  0  0  0  0  0  0  0  0  0  0
   24.1771   31.0360   37.2892 C   0  0  2  0  0  0  0  0  0  0  0  0
   17.0089   28.2755   34.8866 C   0  0  2  0  0  0  0  0  0  0  0  0
   16.5842   29.2845   35.8703 N   0  0  0  0  0  0  0  0  0  0  0  0
   22.1896   26.7745   38.0575 C   0  0  0  0  0  0  0  0  0  0  0  0
   24.5127   32.1306   38.3775 C   0  0  2  0  0  0  0  0  0  0  0  0
   24.5414   31.5479   39.6691 O   0  0  0  0  0  0  0  0  0  0  0  0
   16.3726   26.8942   35.2276 C   0  0  1  0  0  0  0  0  0  0  0  0
   14.9374   26.9988   35.2655 O   0  0  0  0  0  0  0  0  0  0  0  0
   20.6812   26.8235   37.6279 C   0  0  2  0  0  0  0  0  0  0  0  0
   20.2072   25.4710   37.2176 N   0  0  0  0  0  0  0  0  0  0  0  0
   23.4048   33.2486   38.3073 C   0  0  1  0  0  0  0  0  0  0  0  0
   23.6412   34.2886   39.3288 N   0  0  0  0  0  0  0  0  0  0  0  0
   16.8417   25.8670   34.1708 C   0  0  2  0  0  0  0  0  0  0  0  0
   16.2581   24.5924   34.4589 O   0  0  0  0  0  0  0  0  0  0  0  0
   20.4746   27.8103   36.4392 C   0  0  2  0  0  0  0  0  0  0  0  0
   23.4083   33.8790   36.8787 C   0  0  1  0  0  0  0  0  0  0  0  0
   24.6793   34.4807   36.6556 O   0  0  0  0  0  0  0  0  0  0  0  0
   18.4295   25.8005   34.1918 C   0  0  2  0  0  0  0  0  0  0  0  0
   19.0130   27.1293   33.9021 O   0  0  0  0  0  0  0  0  0  0  0  0
   20.9689   29.2219   36.8569 C   0  0  2  0  0  0  0  0  0  0  0  0
   20.7983   30.0964   35.7435 O   0  0  0  0  0  0  0  0  0  0  0  0
   23.1613   32.7493   35.8278 C   0  0  0  0  0  0  0  0  0  0  0  0
   24.1655   31.6660   35.9543 O   0  0  0  0  0  0  0  0  0  0  0  0
   19.0010   24.7920   33.1541 C   0  0  2  0  0  0  0  0  0  0  0  0
   20.4283   24.7602   33.2637 O   0  0  0  0  0  0  0  0  0  0  0  0
   22.4711   29.2184   37.2334 C   0  0  1  0  0  0  0  0  0  0  0  0
   22.8335   30.5687   37.6334 O   0  0  0  0  0  0  0  0  0  0  0  0
   18.6537   25.1764   31.7327 C   0  0  0  0  0  0  0  0  0  0  0  0
   22.3420   34.9642   36.7233 C   0  0  0  0  0  0  0  0  0  0  0  0
   22.8794   33.9016   40.5415 C   0  0  0  0  0  0  0  0  0  0  0  0
  1  2  1  1  0  0  0
  1  6  1  0  0  0  0
  1 23  1  0  0  0  0
  3  4  1  6  0  0  0
  3  8  1  0  0  0  0
  3 30  1  0  0  0  0
  5  9  1  0  0  0  0
  5 27  1  0  0  0  0
  5 31  1  1  0  0  0
  6  7  1  1  0  0  0
  6 11  1  0  0  0  0
  8 13  1  0  0  0  0
  9 10  1  1  0  0  0
  9 15  1  0  0  0  0
 11 12  1  6  0  0  0
 11 17  1  0  0  0  0
 13 14  1  6  0  0  0
 13 19  1  0  0  0  0
 15 16  1  1  0  0  0
 15 20  1  0  0  0  0
 16 34  1  0  0  0  0
 17 18  1  1  0  0  0
 17 22  1  0  0  0  0
 19  2  1  1  0  0  0
 19 24  1  0  0  0  0
 20 21  1  6  0  0  0
 20 26  1  0  0  0  0
 20 33  1  0  0  0  0
 22 23  1  6  0  0  0
 22 28  1  0  0  0  0
 24 25  1  6  0  0  0
 24 30  1  0  0  0  0
 26 27  1  0  0  0  0
 28 29  1  6  0  0  0
 28 32  1  0  0  0  0
 30 31  1  1  0  0  0
M  END
>  <CHROM.1>
-171.17637109,-155.75292870,-92.10510395,-178.22508620,99.67533269,-153.58057421
20.85993916,29.17910144,36.35905966,2.34132686,0.49857715,-3.08310201

>  <Name>
ligand

>  <RI>
0

>  <Rbt.Current_Directory>
/home/itssahil/PROJECTS/Mol_Feturizer/New_Systems/rnas/4p3s

>  <Rbt.Executable>
rbdock ($Id: //depot/dev/client3/rdock/2013.1/src/exe/rbdock.cxx#4 $)

>  <Rbt.Library>
libRbt.so (2013.1, Build901 2013/11/27)

>  <Rbt.Parameter_File>
/export/apps/rDock/src/rDock_2013.1_src/data/scripts/dock_solv.prm

>  <Rbt.Receptor>
prm/pocket_docking_3.prm

>  <SCORE>
-18.9775

>  <SCORE.INTER>
-17.399

>  <SCORE.INTER.CONST>
1

>  <SCORE.INTER.POLAR>
0

>  <SCORE.INTER.ROT>
6

>  <SCORE.INTER.SOLV>
21.967

>  <SCORE.INTER.VDW>
-26.5217

>  <SCORE.INTER.norm>
-0.511737

>  <SCORE.INTRA>
-1.57841

>  <SCORE.INTRA.DIHEDRAL>
-3.96203

>  <SCORE.INTRA.DIHEDRAL.0>
15.8194

>  <SCORE.INTRA.POLAR>
0

>  <SCORE.INTRA.POLAR.0>
0

>  <SCORE.INTRA.REPUL>
0

>  <SCORE.INTRA.REPUL.0>
0

>  <SCORE.INTRA.SOLV>
0.296277

>  <SCORE.INTRA.SOLV.lig_0>
-71.9159

>  <SCORE.INTRA.VDW>
0.254467

>  <SCORE.INTRA.VDW.0>
-3.53918

>  <SCORE.INTRA.norm>
-0.0464239

>  <SCORE.RESTR>
0

>  <SCORE.RESTR.CAVITY>
0

>  <SCORE.RESTR.norm>
0

>  <SCORE.SYSTEM>
0

>  <SCORE.SYSTEM.CONST>
0

>  <SCORE.SYSTEM.DIHEDRAL>
0

>  <SCORE.SYSTEM.SOLV>
0

>  <SCORE.SYSTEM.norm>
0

>  <SCORE.heavy>
34

>  <SCORE.norm>
-0.558161

>  <RMSD>
0.595

$$$$
ligand
 OpenBabel01301917533D
libRbt.so/2013.1/901 2013/11/27
 34 36  0  0  0  0  0  0  0  0999 V2000
   18.6557   28.0752   34.8618 C   0  0  2  0  0  0  0  0  0  0  0  0
   19.1048   27.7118   36.1711 O   0  0  0  0  0  0  0  0  0  0  0  0
   22.6751   28.2085   38.4967 C   0  0  2  0  0  0  0  0  0  0  0  0
   24.0804   28.1788   38.9243 N   0  0  0  0  0  0  0  0  0  0  0  0
   24.2043   31.0255   37.2659 C   0  0  2  0  0  0  0  0  0  0  0  0
   17.0855   28.1926   34.8996 C   0  0  2  0  0  0  0  0  0  0  0  0
   16.6579   29.1990   35.8847 N   0  0  0  0  0  0  0  0  0  0  0  0
   22.2640   26.7443   38.1015 C   0  0  0  0  0  0  0  0  0  0  0  0
   24.5420   32.1294   38.3441 C   0  0  2  0  0  0  0  0  0  0  0  0
   24.6020   31.5525   39.6372 O   0  0  0  0  0  0  0  0  0  0  0  0
   16.4503   26.8098   35.2366 C   0  0  1  0  0  0  0  0  0  0  0  0
   15.0149   26.9126   35.2724 O   0  0  0  0  0  0  0  0  0  0  0  0
   20.7575   26.7738   37.6634 C   0  0  2  0  0  0  0  0  0  0  0  0
   20.2986   25.4120   37.2669 N   0  0  0  0  0  0  0  0  0  0  0  0
   23.4161   33.2302   38.2890 C   0  0  1  0  0  0  0  0  0  0  0  0
   23.6542   34.2777   39.3023 N   0  0  0  0  0  0  0  0  0  0  0  0
   16.9224   25.7854   34.1784 C   0  0  2  0  0  0  0  0  0  0  0  0
   16.3398   24.5096   34.4629 O   0  0  0  0  0  0  0  0  0  0  0  0
   20.5479   27.7443   36.4619 C   0  0  2  0  0  0  0  0  0  0  0  0
   23.3851   33.8547   36.8581 C   0  0  1  0  0  0  0  0  0  0  0  0
   24.6427   34.4748   36.6106 O   0  0  0  0  0  0  0  0  0  0  0  0
   18.5102   25.7207   34.2020 C   0  0  2  0  0  0  0  0  0  0  0  0
   19.0926   27.0508   33.9161 O   0  0  0  0  0  0  0  0  0  0  0  0
   21.0266   29.1654   36.8653 C   0  0  2  0  0  0  0  0  0  0  0  0
   20.8536   30.0249   35.7406 O   0  0  0  0  0  0  0  0  0  0  0  0
   23.1371   32.7172   35.8160 C   0  0  0  0  0  0  0  0  0  0  0  0
   24.1598   31.6497   35.9291 O   0  0  0  0  0  0  0  0  0  0  0  0
   19.0846   24.7151   33.1631 C   0  0  2  0  0  0  0  0  0  0  0  0
   20.5141   24.7168   33.2454 O   0  0  0  0  0  0  0  0  0  0  0  0
   22.5267   29.1808   37.2497 C   0  0  1  0  0  0  0  0  0  0  0  0
   22.8742   30.5392   37.6353 O   0  0  0  0  0  0  0  0  0  0  0  0
   18.7015   25.0772   31.7451 C   0  0  0  0  0  0  0  0  0  0  0  0
   22.2998   34.9230   36.7173 C   0  0  0  0  0  0  0  0  0  0  0  0
   22.9342   33.8752   40.5353 C   0  0  0  0  0  0  0  0  0  0  0  0
  1  2  1  1  0  0  0
  1  6  1  0  0  0  0
  1 23  1  0  0  0  0
  3  4  1  6  0  0  0
  3  8  1  0  0  0  0
  3 30  1  0  0  0  0
  5  9  1  0  0  0  0
  5 27  1  0  0  0  0
  5 31  1  1  0  0  0
  6  7  1  1  0  0  0
  6 11  1  0  0  0  0
  8 13  1  0  0  0  0
  9 10  1  1  0  0  0
  9 15  1  0  0  0  0
 11 12  1  6  0  0  0
 11 17  1  0  0  0  0
 13 14  1  6  0  0  0
 13 19  1  0  0  0  0
 15 16  1  1  0  0  0
 15 20  1  0  0  0  0
 16 34  1  0  0  0  0
 17 18  1  1  0  0  0
 17 22  1  0  0  0  0
 19  2  1  1  0  0  0
 19 24  1  0  0  0  0
 20 21  1  6  0  0  0
 20 26  1  0  0  0  0
 20 33  1  0  0  0  0
 22 23  1  6  0  0  0
 22 28  1  0  0  0  0
 24 25  1  6  0  0  0
 24 30  1  0  0  0  0
 26 27  1  0  0  0  0
 28 29  1  6  0  0  0
 28 32  1  0  0  0  0
 30 31  1  1  0  0  0
M  END
>  <CHROM.1>
-170.42816851,-156.81462934,-91.37934871,179.91936335,101.02192262,-153.43577994
20.90980474,29.13046857,36.36166272,2.33787509,0.51211516,-3.09579383

>  <Name>
ligand

>  <RI>
0

>  <Rbt.Current_Directory>
/home/itssahil/PROJECTS/Mol_Feturizer/New_Systems/rnas/4p3s

>  <Rbt.Executable>
rbdock ($Id: //depot/dev/client3/rdock/2013.1/src/exe/rbdock.cxx#4 $)

>  <Rbt.Library>
libRbt.so (2013.1, Build901 2013/11/27)

>  <Rbt.Parameter_File>
/export/apps/rDock/src/rDock_2013.1_src/data/scripts/dock_solv.prm

>  <Rbt.Receptor>
prm/pocket_docking_5.prm

>  <SCORE>
-18.9952

>  <SCORE.INTER>
-17.4516

>  <SCORE.INTER.CONST>
1

>  <SCORE.INTER.POLAR>
0

>  <SCORE.INTER.ROT>
6

>  <SCORE.INTER.SOLV>
22.1381

>  <SCORE.INTER.VDW>
-26.6138

>  <SCORE.INTER.norm>
-0.513282

>  <SCORE.INTRA>
-1.54361

>  <SCORE.INTRA.DIHEDRAL>
-3.8834

>  <SCORE.INTRA.DIHEDRAL.0>
15.8194

>  <SCORE.INTRA.POLAR>
0

>  <SCORE.INTRA.POLAR.0>
0

>  <SCORE.INTRA.REPUL>
0

>  <SCORE.INTRA.REPUL.0>
0

>  <SCORE.INTRA.SOLV>
0.17933

>  <SCORE.INTRA.SOLV.lig_0>
-71.9159

>  <SCORE.INTRA.VDW>
0.308418

>  <SCORE.INTRA.VDW.0>
-3.53918

>  <SCORE.INTRA.norm>
-0.0454004

>  <SCORE.RESTR>
0

>  <SCORE.RESTR.CAVITY>
0

>  <SCORE.RESTR.norm>
0

>  <SCORE.SYSTEM>
0

>  <SCORE.SYSTEM.CONST>
0

>  <SCORE.SYSTEM.DIHEDRAL>
0

>  <SCORE.SYSTEM.SOLV>
0

>  <SCORE.SYSTEM.norm>
0

>  <SCORE.heavy>
34

>  <SCORE.norm>
-0.558682

>  <RMSD>
0.596

$$$$
ligand
 OpenBabel01301917533D
libRbt.so/2013.1/901 2013/11/27
 34 36  0  0  0  0  0  0  0  0999 V2000
   18.5804   28.1522   34.8621 C   0  0  2  0  0  0  0  0  0  0  0  0
   19.0314   27.7893   36.1709 O   0  0  0  0  0  0  0  0  0  0  0  0
   22.6204   28.2077   38.4832 C   0  0  2  0  0  0  0  0  0  0  0  0
   24.0278   28.1558   38.9017 N   0  0  0  0  0  0  0  0  0  0  0  0
   24.1808   31.0209   37.3161 C   0  0  2  0  0  0  0  0  0  0  0  0
   17.0101   28.2668   34.9014 C   0  0  2  0  0  0  0  0  0  0  0  0
   16.5817   29.2723   35.8871 N   0  0  0  0  0  0  0  0  0  0  0  0
   22.1917   26.7550   38.0645 C   0  0  0  0  0  0  0  0  0  0  0  0
   24.5111   32.1247   38.3968 C   0  0  2  0  0  0  0  0  0  0  0  0
   24.5405   31.5516   39.6927 O   0  0  0  0  0  0  0  0  0  0  0  0
   16.3776   26.8829   35.2389 C   0  0  1  0  0  0  0  0  0  0  0  0
   14.9420   26.9832   35.2761 O   0  0  0  0  0  0  0  0  0  0  0  0
   20.6831   26.8078   37.6362 C   0  0  2  0  0  0  0  0  0  0  0  0
   20.2077   25.4581   37.2182 N   0  0  0  0  0  0  0  0  0  0  0  0
   23.3992   33.2380   38.3171 C   0  0  1  0  0  0  0  0  0  0  0  0
   23.6305   34.2863   39.3313 N   0  0  0  0  0  0  0  0  0  0  0  0
   16.8504   25.8594   34.1801 C   0  0  2  0  0  0  0  0  0  0  0  0
   16.2704   24.5825   34.4650 O   0  0  0  0  0  0  0  0  0  0  0  0
   20.4765   27.8018   36.4535 C   0  0  2  0  0  0  0  0  0  0  0  0
   23.4019   33.8579   36.8839 C   0  0  1  0  0  0  0  0  0  0  0  0
   24.6709   34.4627   36.6578 O   0  0  0  0  0  0  0  0  0  0  0  0
   18.4384   25.7975   34.2021 C   0  0  2  0  0  0  0  0  0  0  0  0
   19.0182   27.1286   33.9158 O   0  0  0  0  0  0  0  0  0  0  0  0
   20.9723   29.2105   36.8792 C   0  0  2  0  0  0  0  0  0  0  0  0
   20.8016   30.0917   35.7710 O   0  0  0  0  0  0  0  0  0  0  0  0
   23.1602   32.7196   35.8411 C   0  0  0  0  0  0  0  0  0  0  0  0
   24.1683   31.6410   35.9767 O   0  0  0  0  0  0  0  0  0  0  0  0
   19.0136   24.7930   33.1625 C   0  0  2  0  0  0  0  0  0  0  0  0
   20.4423   24.7828   33.2569 O   0  0  0  0  0  0  0  0  0  0  0  0
   22.4748   29.2035   37.2547 C   0  0  1  0  0  0  0  0  0  0  0  0
   22.8386   30.5511   37.6624 O   0  0  0  0  0  0  0  0  0  0  0  0
   18.6454   25.1660   31.7434 C   0  0  0  0  0  0  0  0  0  0  0  0
   22.3317   34.9380   36.7195 C   0  0  0  0  0  0  0  0  0  0  0  0
   22.8967   33.8881   40.5575 C   0  0  0  0  0  0  0  0  0  0  0  0
  1  2  1  1  0  0  0
  1  6  1  0  0  0  0
  1 23  1  0  0  0  0
  3  4  1  6  0  0  0
  3  8  1  0  0  0  0
  3 30  1  0  0  0  0
  5  9  1  0  0  0  0
  5 27  1  0  0  0  0
  5 31  1  1  0  0  0
  6  7  1  1  0  0  0
  6 11  1  0  0  0  0
  8 13  1  0  0  0  0
  9 10  1  1  0  0  0
  9 15  1  0  0  0  0
 11 12  1  6  0  0  0
 11 17  1  0  0  0  0
 13 14  1  6  0  0  0
 13 19  1  0  0  0  0
 15 16  1  1  0  0  0
 15 20  1  0  0  0  0
 16 34  1  0  0  0  0
 17 18  1  1  0  0  0
 17 22  1  0  0  0  0
 19  2  1  1  0  0  0
 19 24  1  0  0  0  0
 20 21  1  6  0  0  0
 20 26  1  0  0  0  0
 20 33  1  0  0  0  0
 22 23  1  6  0  0  0
 22 28  1  0  0  0  0
 24 25  1  6  0  0  0
 24 30  1  0  0  0  0
 26 27  1  0  0  0  0
 28 29  1  6  0  0  0
 28 32  1  0  0  0  0
 30 31  1  1  0  0  0
M  END
>  <CHROM.1>
-171.47738317,-155.44242673,-90.69866041,-179.24381063,99.86989026,-154.45990771
20.86215680,29.16799577,36.37180189,2.34233328,0.50042861,-3.08382724

>  <Name>
ligand

>  <RI>
0

>  <Rbt.Current_Directory>
/home/itssahil/PROJECTS/Mol_Feturizer/New_Systems/rnas/4p3s

>  <Rbt.Executable>
rbdock ($Id: //depot/dev/client3/rdock/2013.1/src/exe/rbdock.cxx#4 $)

>  <Rbt.Library>
libRbt.so (2013.1, Build901 2013/11/27)

>  <Rbt.Parameter_File>
/export/apps/rDock/src/rDock_2013.1_src/data/scripts/dock_solv.prm

>  <Rbt.Receptor>
prm/pocket_docking_3.prm

>  <SCORE>
-18.9172

>  <SCORE.INTER>
-17.3056

>  <SCORE.INTER.CONST>
1

>  <SCORE.INTER.POLAR>
0

>  <SCORE.INTER.ROT>
6

>  <SCORE.INTER.SOLV>
21.9337

>  <SCORE.INTER.VDW>
-26.4483

>  <SCORE.INTER.norm>
-0.508987

>  <SCORE.INTRA>
-1.61165

>  <SCORE.INTRA.DIHEDRAL>
-4.11578

>  <SCORE.INTRA.DIHEDRAL.0>
15.8194

>  <SCORE.INTRA.POLAR>
0

>  <SCORE.INTRA.POLAR.0>
0

>  <SCORE.INTRA.REPUL>
0

>  <SCORE.INTRA.REPUL.0>
0

>  <SCORE.INTRA.SOLV>
0.295518

>  <SCORE.INTRA.SOLV.lig_0>
-71.9159

>  <SCORE.INTRA.VDW>
0.298486

>  <SCORE.INTRA.VDW.0>
-3.53918

>  <SCORE.INTRA.norm>
-0.0474013

>  <SCORE.RESTR>
0

>  <SCORE.RESTR.CAVITY>
0

>  <SCORE.RESTR.norm>
0

>  <SCORE.SYSTEM>
0

>  <SCORE.SYSTEM.CONST>
0

>  <SCORE.SYSTEM.DIHEDRAL>
0

>  <SCORE.SYSTEM.SOLV>
0

>  <SCORE.SYSTEM.norm>
0

>  <SCORE.heavy>
34

>  <SCORE.norm>
-0.556388

>  <RMSD>
0.601

$$$$
ligand
 OpenBabel01301917533D
libRbt.so/2013.1/901 2013/11/27
 34 36  0  0  0  0  0  0  0  0999 V2000
   18.6799   27.9787   34.9518 C   0  0  2  0  0  0  0  0  0  0  0  0
   19.1232   27.5490   36.2430 O   0  0  0  0  0  0  0  0  0  0  0  0
   22.6286   28.2935   38.6009 C   0  0  2  0  0  0  0  0  0  0  0  0
   24.0232   28.3204   39.0625 N   0  0  0  0  0  0  0  0  0  0  0  0
   24.1553   31.0149   37.1744 C   0  0  2  0  0  0  0  0  0  0  0  0
   17.1074   28.0645   34.9794 C   0  0  2  0  0  0  0  0  0  0  0  0
   16.6511   29.0044   36.0159 N   0  0  0  0  0  0  0  0  0  0  0  0
   22.2452   26.7951   38.3232 C   0  0  0  0  0  0  0  0  0  0  0  0
   24.5161   32.1032   38.2611 C   0  0  2  0  0  0  0  0  0  0  0  0
   24.5758   31.5127   39.5481 O   0  0  0  0  0  0  0  0  0  0  0  0
   16.4957   26.6530   35.2298 C   0  0  1  0  0  0  0  0  0  0  0  0
   15.0583   26.7268   35.2560 O   0  0  0  0  0  0  0  0  0  0  0  0
   20.7498   26.7656   37.8488 C   0  0  2  0  0  0  0  0  0  0  0  0
   20.3174   25.3685   37.5598 N   0  0  0  0  0  0  0  0  0  0  0  0
   23.4062   33.2208   38.2240 C   0  0  1  0  0  0  0  0  0  0  0  0
   23.6662   34.2547   39.2459 N   0  0  0  0  0  0  0  0  0  0  0  0
   16.9976   25.7001   34.1198 C   0  0  2  0  0  0  0  0  0  0  0  0
   16.4369   24.3994   34.3244 O   0  0  0  0  0  0  0  0  0  0  0  0
   20.5582   27.6268   36.5639 C   0  0  2  0  0  0  0  0  0  0  0  0
   23.3753   33.8597   36.7996 C   0  0  1  0  0  0  0  0  0  0  0  0
   24.6403   34.4637   36.5500 O   0  0  0  0  0  0  0  0  0  0  0  0
   18.5861   25.6638   34.1566 C   0  0  2  0  0  0  0  0  0  0  0  0
   19.1455   27.0188   33.9538 O   0  0  0  0  0  0  0  0  0  0  0  0
   21.0094   29.0839   36.8550 C   0  0  2  0  0  0  0  0  0  0  0  0
   20.8539   29.8416   35.6569 O   0  0  0  0  0  0  0  0  0  0  0  0
   23.1040   32.7363   35.7480 C   0  0  0  0  0  0  0  0  0  0  0  0
   24.1116   31.6529   35.8440 O   0  0  0  0  0  0  0  0  0  0  0  0
   19.1897   24.7305   33.0681 C   0  0  2  0  0  0  0  0  0  0  0  0
   20.6184   24.7645   33.1570 O   0  0  0  0  0  0  0  0  0  0  0  0
   22.4993   29.1534   37.2719 C   0  0  1  0  0  0  0  0  0  0  0  0
   22.8206   30.5445   37.5477 O   0  0  0  0  0  0  0  0  0  0  0  0
   18.8020   25.1582   31.6698 C   0  0  0  0  0  0  0  0  0  0  0  0
   22.3049   34.9451   36.6762 C   0  0  0  0  0  0  0  0  0  0  0  0
   23.0025   33.8180   40.4988 C   0  0  0  0  0  0  0  0  0  0  0  0
  1  2  1  1  0  0  0
  1  6  1  0  0  0  0
  1 23  1  0  0  0  0
  3  4  1  6  0  0  0
  3  8  1  0  0  0  0
  3 30  1  0  0  0  0
  5  9  1  0  0  0  0
  5 27  1  0  0  0  0
  5 31  1  1  0  0  0
  6  7  1  1  0  0  0
  6 11  1  0  0  0  0
  8 13  1  0  0  0  0
  9 10  1  1  0  0  0
  9 15  1  0  0  0  0
 11 12  1  6  0  0  0
 11 17  1  0  0  0  0
 13 14  1  6  0  0  0
 13 19  1  0  0  0  0
 15 16  1  1  0  0  0
 15 20  1  0  0  0  0
 16 34  1  0  0  0  0
 17 18  1  1  0  0  0
 17 22  1  0  0  0  0
 19  2  1  1  0  0  0
 19 24  1  0  0  0  0
 20 21  1  6  0  0  0
 20 26  1  0  0  0  0
 20 33  1  0  0  0  0
 22 23  1  6  0  0  0
 22 28  1  0  0  0  0
 24 25  1  6  0  0  0
 24 30  1  0  0  0  0
 26 27  1  0  0  0  0
 28 29  1  6  0  0  0
 28 32  1  0  0  0  0
 30 31  1  1  0  0  0
M  END
>  <CHROM.1>
-168.74882780,-165.74331906,-88.69761022,179.34394216,100.77590384,-147.36015609
20.92335180,29.08950251,36.36014416,2.38543269,0.60092276,3.08075244

>  <Name>
ligand

>  <RI>
0

>  <Rbt.Current_Directory>
/home/itssahil/PROJECTS/Mol_Feturizer/New_Systems/rnas/4p3s

>  <Rbt.Executable>
rbdock ($Id: //depot/dev/client3/rdock/2013.1/src/exe/rbdock.cxx#4 $)

>  <Rbt.Library>
libRbt.so (2013.1, Build901 2013/11/27)

>  <Rbt.Parameter_File>
/export/apps/rDock/src/rDock_2013.1_src/data/scripts/dock_solv.prm

>  <Rbt.Receptor>
prm/pocket_docking_3.prm

>  <SCORE>
-18.6255

>  <SCORE.INTER>
-17.1726

>  <SCORE.INTER.CONST>
1

>  <SCORE.INTER.POLAR>
0

>  <SCORE.INTER.ROT>
6

>  <SCORE.INTER.SOLV>
22.1634

>  <SCORE.INTER.VDW>
-26.4362

>  <SCORE.INTER.norm>
-0.505078

>  <SCORE.INTRA>
-1.45287

>  <SCORE.INTRA.DIHEDRAL>
-4.0923

>  <SCORE.INTRA.DIHEDRAL.0>
15.8194

>  <SCORE.INTRA.POLAR>
0

>  <SCORE.INTRA.POLAR.0>
0

>  <SCORE.INTRA.REPUL>
0

>  <SCORE.INTRA.REPUL.0>
0

>  <SCORE.INTRA.SOLV>
-0.254676

>  <SCORE.INTRA.SOLV.lig_0>
-71.9159

>  <SCORE.INTRA.VDW>
0.720617

>  <SCORE.INTRA.VDW.0>
-3.53918

>  <SCORE.INTRA.norm>
-0.0427315

>  <SCORE.RESTR>
0

>  <SCORE.RESTR.CAVITY>
0

>  <SCORE.RESTR.norm>
0

>  <SCORE.SYSTEM>
0

>  <SCORE.SYSTEM.CONST>
0

>  <SCORE.SYSTEM.DIHEDRAL>
0

>  <SCORE.SYSTEM.SOLV>
0

>  <SCORE.SYSTEM.norm>
0

>  <SCORE.heavy>
34

>  <SCORE.norm>
-0.547809

>  <RMSD>
0.612

$$$$
ligand
 OpenBabel01301917533D
libRbt.so/2013.1/901 2013/11/27
 34 36  0  0  0  0  0  0  0  0999 V2000
   18.5901   27.9094   34.9357 C   0  0  2  0  0  0  0  0  0  0  0  0
   19.0705   27.5062   36.2221 O   0  0  0  0  0  0  0  0  0  0  0  0
   22.6483   28.1758   38.4921 C   0  0  2  0  0  0  0  0  0  0  0  0
   24.0576   28.1953   38.9070 N   0  0  0  0  0  0  0  0  0  0  0  0
   24.1341   30.9483   37.2254 C   0  0  2  0  0  0  0  0  0  0  0  0
   17.0169   27.9571   34.9953 C   0  0  2  0  0  0  0  0  0  0  0  0
   16.5591   28.8979   36.0303 N   0  0  0  0  0  0  0  0  0  0  0  0
   22.2682   26.6881   38.1582 C   0  0  0  0  0  0  0  0  0  0  0  0
   24.4612   32.0049   38.3533 C   0  0  2  0  0  0  0  0  0  0  0  0
   24.4732   31.3795   39.6250 O   0  0  0  0  0  0  0  0  0  0  0  0
   16.4455   26.5342   35.2746 C   0  0  1  0  0  0  0  0  0  0  0  0
   15.0075   26.5732   35.3301 O   0  0  0  0  0  0  0  0  0  0  0  0
   20.7577   26.6657   37.7338 C   0  0  2  0  0  0  0  0  0  0  0  0
   20.3274   25.2791   37.3950 N   0  0  0  0  0  0  0  0  0  0  0  0
   23.3580   33.1288   38.3079 C   0  0  1  0  0  0  0  0  0  0  0  0
   23.5863   34.1333   39.3660 N   0  0  0  0  0  0  0  0  0  0  0  0
   16.9476   25.5806   34.1653 C   0  0  2  0  0  0  0  0  0  0  0  0
   16.4235   24.2692   34.3965 O   0  0  0  0  0  0  0  0  0  0  0  0
   20.5149   27.5833   36.4975 C   0  0  2  0  0  0  0  0  0  0  0  0
   23.3797   33.8062   36.9011 C   0  0  1  0  0  0  0  0  0  0  0  0
   24.6553   34.4102   36.7124 O   0  0  0  0  0  0  0  0  0  0  0  0
   18.5370   25.5835   34.1692 C   0  0  2  0  0  0  0  0  0  0  0  0
   19.0585   26.9492   33.9392 O   0  0  0  0  0  0  0  0  0  0  0  0
   20.9636   29.0298   36.8407 C   0  0  2  0  0  0  0  0  0  0  0  0
   20.7607   29.8405   35.6851 O   0  0  0  0  0  0  0  0  0  0  0  0
   23.1408   32.7131   35.8106 C   0  0  0  0  0  0  0  0  0  0  0  0
   24.1398   31.6223   35.9122 O   0  0  0  0  0  0  0  0  0  0  0  0
   19.1408   24.6523   33.0791 C   0  0  2  0  0  0  0  0  0  0  0  0
   20.5696   24.7310   33.1299 O   0  0  0  0  0  0  0  0  0  0  0  0
   22.4663   29.0949   37.2097 C   0  0  1  0  0  0  0  0  0  0  0  0
   22.7851   30.4749   37.5389 O   0  0  0  0  0  0  0  0  0  0  0  0
   18.7041   25.0463   31.6853 C   0  0  0  0  0  0  0  0  0  0  0  0
   22.3190   34.9001   36.7700 C   0  0  0  0  0  0  0  0  0  0  0  0
   22.6623   33.8196   40.4835 C   0  0  0  0  0  0  0  0  0  0  0  0
  1  2  1  1  0  0  0
  1  6  1  0  0  0  0
  1 23  1  0  0  0  0
  3  4  1  6  0  0  0
  3  8  1  0  0  0  0
  3 30  1  0  0  0  0
  5  9  1  0  0  0  0
  5 27  1  0  0  0  0
  5 31  1  1  0  0  0
  6  7  1  1  0  0  0
  6 11  1  0  0  0  0
  8 13  1  0  0  0  0
  9 10  1  1  0  0  0
  9 15  1  0  0  0  0
 11 12  1  6  0  0  0
 11 17  1  0  0  0  0
 13 14  1  6  0  0  0
 13 19  1  0  0  0  0
 15 16  1  1  0  0  0
 15 20  1  0  0  0  0
 16 34  1  0  0  0  0
 17 18  1  1  0  0  0
 17 22  1  0  0  0  0
 19  2  1  1  0  0  0
 19 24  1  0  0  0  0
 20 21  1  6  0  0  0
 20 26  1  0  0  0  0
 20 33  1  0  0  0  0
 22 23  1  6  0  0  0
 22 28  1  0  0  0  0
 24 25  1  6  0  0  0
 24 30  1  0  0  0  0
 26 27  1  0  0  0  0
 28 29  1  6  0  0  0
 28 32  1  0  0  0  0
 30 31  1  1  0  0  0
M  END
>  <CHROM.1>
-170.62976649,-161.71830604,-100.12990944,178.84778866,96.69728348,-147.58223685
20.87764907,29.01057413,36.37013218,2.32572793,0.51151386,-3.09317394

>  <Name>
ligand

>  <RI>
0

>  <Rbt.Current_Directory>
/home/itssahil/PROJECTS/Mol_Feturizer/New_Systems/rnas/4p3s

>  <Rbt.Executable>
rbdock ($Id: //depot/dev/client3/rdock/2013.1/src/exe/rbdock.cxx#4 $)

>  <Rbt.Library>
libRbt.so (2013.1, Build901 2013/11/27)

>  <Rbt.Parameter_File>
/export/apps/rDock/src/rDock_2013.1_src/data/scripts/dock_solv.prm

>  <Rbt.Receptor>
prm/pocket_docking_5.prm

>  <SCORE>
-18.8903

>  <SCORE.INTER>
-17.0207

>  <SCORE.INTER.CONST>
1

>  <SCORE.INTER.POLAR>
0

>  <SCORE.INTER.ROT>
6

>  <SCORE.INTER.SOLV>
22.262

>  <SCORE.INTER.VDW>
-26.3678

>  <SCORE.INTER.norm>
-0.500608

>  <SCORE.INTRA>
-1.86964

>  <SCORE.INTRA.DIHEDRAL>
-4.07512

>  <SCORE.INTRA.DIHEDRAL.0>
15.8194

>  <SCORE.INTRA.POLAR>
0

>  <SCORE.INTRA.POLAR.0>
0

>  <SCORE.INTRA.REPUL>
0

>  <SCORE.INTRA.REPUL.0>
0

>  <SCORE.INTRA.SOLV>
-0.0966631

>  <SCORE.INTRA.SOLV.lig_0>
-71.9159

>  <SCORE.INTRA.VDW>
0.21625

>  <SCORE.INTRA.VDW.0>
-3.53918

>  <SCORE.INTRA.norm>
-0.0549894

>  <SCORE.RESTR>
0

>  <SCORE.RESTR.CAVITY>
0

>  <SCORE.RESTR.norm>
0

>  <SCORE.SYSTEM>
0

>  <SCORE.SYSTEM.CONST>
0

>  <SCORE.SYSTEM.DIHEDRAL>
0

>  <SCORE.SYSTEM.SOLV>
0

>  <SCORE.SYSTEM.norm>
0

>  <SCORE.heavy>
34

>  <SCORE.norm>
-0.555597

>  <RMSD>
0.623

$$$$
ligand
 OpenBabel01301917533D
libRbt.so/2013.1/901 2013/11/27
 34 36  0  0  0  0  0  0  0  0999 V2000
   18.6339   28.0011   34.9497 C   0  0  2  0  0  0  0  0  0  0  0  0
   19.0959   27.5863   36.2391 O   0  0  0  0  0  0  0  0  0  0  0  0
   22.6777   28.1003   38.5431 C   0  0  2  0  0  0  0  0  0  0  0  0
   24.0854   28.0749   38.9633 N   0  0  0  0  0  0  0  0  0  0  0  0
   24.1990   30.9105   37.2989 C   0  0  2  0  0  0  0  0  0  0  0  0
   17.0624   28.0934   35.0008 C   0  0  2  0  0  0  0  0  0  0  0  0
   16.6260   29.0484   36.0321 N   0  0  0  0  0  0  0  0  0  0  0  0
   22.2670   26.6334   38.1572 C   0  0  0  0  0  0  0  0  0  0  0  0
   24.5306   32.0293   38.3637 C   0  0  2  0  0  0  0  0  0  0  0  0
   24.5863   31.4698   39.6646 O   0  0  0  0  0  0  0  0  0  0  0  0
   16.4494   26.6878   35.2790 C   0  0  1  0  0  0  0  0  0  0  0  0
   15.0128   26.7676   35.3267 O   0  0  0  0  0  0  0  0  0  0  0  0
   20.7582   26.6583   37.7270 C   0  0  2  0  0  0  0  0  0  0  0  0
   20.2994   25.2938   37.3395 N   0  0  0  0  0  0  0  0  0  0  0  0
   23.4032   33.1274   38.2893 C   0  0  1  0  0  0  0  0  0  0  0  0
   23.6356   34.1888   39.2895 N   0  0  0  0  0  0  0  0  0  0  0  0
   16.9301   25.7186   34.1736 C   0  0  2  0  0  0  0  0  0  0  0  0
   16.3679   24.4229   34.4038 O   0  0  0  0  0  0  0  0  0  0  0  0
   20.5405   27.6226   36.5220 C   0  0  2  0  0  0  0  0  0  0  0  0
   23.3770   33.7327   36.8501 C   0  0  1  0  0  0  0  0  0  0  0  0
   24.6347   34.3515   36.5994 O   0  0  0  0  0  0  0  0  0  0  0  0
   18.5189   25.6765   34.1860 C   0  0  2  0  0  0  0  0  0  0  0  0
   19.0802   27.0265   33.9569 O   0  0  0  0  0  0  0  0  0  0  0  0
   21.0189   29.0465   36.9159 C   0  0  2  0  0  0  0  0  0  0  0  0
   20.8384   29.9003   35.7880 O   0  0  0  0  0  0  0  0  0  0  0  0
   23.1351   32.5810   35.8223 C   0  0  0  0  0  0  0  0  0  0  0  0
   24.1590   31.5169   35.9537 O   0  0  0  0  0  0  0  0  0  0  0  0
   19.1018   24.7269   33.1003 C   0  0  2  0  0  0  0  0  0  0  0  0
   20.5293   24.7052   33.2097 O   0  0  0  0  0  0  0  0  0  0  0  0
   22.5210   29.0662   37.2922 C   0  0  1  0  0  0  0  0  0  0  0  0
   22.8682   30.4270   37.6694 O   0  0  0  0  0  0  0  0  0  0  0  0
   18.7510   25.1772   31.6993 C   0  0  0  0  0  0  0  0  0  0  0  0
   22.2906   34.7972   36.6906 C   0  0  0  0  0  0  0  0  0  0  0  0
   22.8586   33.8342   40.5024 C   0  0  0  0  0  0  0  0  0  0  0  0
  1  2  1  1  0  0  0
  1  6  1  0  0  0  0
  1 23  1  0  0  0  0
  3  4  1  6  0  0  0
  3  8  1  0  0  0  0
  3 30  1  0  0  0  0
  5  9  1  0  0  0  0
  5 27  1  0  0  0  0
  5 31  1  1  0  0  0
  6  7  1  1  0  0  0
  6 11  1  0  0  0  0
  8 13  1  0  0  0  0
  9 10  1  1  0  0  0
  9 15  1  0  0  0  0
 11 12  1  6  0  0  0
 11 17  1  0  0  0  0
 13 14  1  6  0  0  0
 13 19  1  0  0  0  0
 15 16  1  1  0  0  0
 15 20  1  0  0  0  0
 16 34  1  0  0  0  0
 17 18  1  1  0  0  0
 17 22  1  0  0  0  0
 19  2  1  1  0  0  0
 19 24  1  0  0  0  0
 20 21  1  6  0  0  0
 20 26  1  0  0  0  0
 20 33  1  0  0  0  0
 22 23  1  6  0  0  0
 22 28  1  0  0  0  0
 24 25  1  6  0  0  0
 24 30  1  0  0  0  0
 26 27  1  0  0  0  0
 28 29  1  6  0  0  0
 28 32  1  0  0  0  0
 30 31  1  1  0  0  0
M  END
>  <CHROM.1>
-170.64296350,-159.63729772,-94.04480026,-177.81446456,100.59462693,-153.86024314
20.90479797,29.03798656,36.38591812,2.34758013,0.52394610,-3.10993393

>  <Name>
ligand

>  <RI>
0

>  <Rbt.Current_Directory>
/home/itssahil/PROJECTS/Mol_Feturizer/New_Systems/rnas/4p3s

>  <Rbt.Executable>
rbdock ($Id: //depot/dev/client3/rdock/2013.1/src/exe/rbdock.cxx#4 $)

>  <Rbt.Library>
libRbt.so (2013.1, Build901 2013/11/27)

>  <Rbt.Parameter_File>
/export/apps/rDock/src/rDock_2013.1_src/data/scripts/dock_solv.prm

>  <Rbt.Receptor>
prm/pocket_docking_3.prm

>  <SCORE>
-18.9846

>  <SCORE.INTER>
-16.8978

>  <SCORE.INTER.CONST>
1

>  <SCORE.INTER.POLAR>
0

>  <SCORE.INTER.ROT>
6

>  <SCORE.INTER.SOLV>
22.2146

>  <SCORE.INTER.VDW>
-26.2701

>  <SCORE.INTER.norm>
-0.496995

>  <SCORE.INTRA>
-2.08672

>  <SCORE.INTRA.DIHEDRAL>
-4.42543

>  <SCORE.INTRA.DIHEDRAL.0>
15.8194

>  <SCORE.INTRA.POLAR>
0

>  <SCORE.INTRA.POLAR.0>
0

>  <SCORE.INTRA.REPUL>
0

>  <SCORE.INTRA.REPUL.0>
0

>  <SCORE.INTRA.SOLV>
-0.110621

>  <SCORE.INTRA.SOLV.lig_0>
-71.9159

>  <SCORE.INTRA.VDW>
0.181305

>  <SCORE.INTRA.VDW.0>
-3.53918

>  <SCORE.INTRA.norm>
-0.0613741

>  <SCORE.RESTR>
0

>  <SCORE.RESTR.CAVITY>
0

>  <SCORE.RESTR.norm>
0

>  <SCORE.SYSTEM>
0

>  <SCORE.SYSTEM.CONST>
0

>  <SCORE.SYSTEM.DIHEDRAL>
0

>  <SCORE.SYSTEM.SOLV>
0

>  <SCORE.SYSTEM.norm>
0

>  <SCORE.heavy>
34

>  <SCORE.norm>
-0.55837

>  <RMSD>
0.632

$$$$
ligand
 OpenBabel01301917533D
libRbt.so/2013.1/901 2013/11/27
 34 36  0  0  0  0  0  0  0  0999 V2000
   18.3528   28.2405   35.0165 C   0  0  2  0  0  0  0  0  0  0  0  0
   18.8804   27.6372   36.2021 O   0  0  0  0  0  0  0  0  0  0  0  0
   22.5407   28.1673   38.3754 C   0  0  2  0  0  0  0  0  0  0  0  0
   23.9624   28.1462   38.7455 N   0  0  0  0  0  0  0  0  0  0  0  0
   24.0549   30.9351   37.1744 C   0  0  2  0  0  0  0  0  0  0  0  0
   16.8180   28.5088   35.2470 C   0  0  2  0  0  0  0  0  0  0  0  0
   16.6076   29.3903   36.4066 N   0  0  0  0  0  0  0  0  0  0  0  0
   22.1194   26.6981   38.0104 C   0  0  0  0  0  0  0  0  0  0  0  0
   24.4082   31.9735   38.3112 C   0  0  2  0  0  0  0  0  0  0  0  0
   24.4075   31.3364   39.5772 O   0  0  0  0  0  0  0  0  0  0  0  0
   16.0612   27.1621   35.4539 C   0  0  1  0  0  0  0  0  0  0  0  0
   14.6578   27.4027   35.6652 O   0  0  0  0  0  0  0  0  0  0  0  0
   20.5962   26.7184   37.6340 C   0  0  2  0  0  0  0  0  0  0  0  0
   20.1267   25.3515   37.2687 N   0  0  0  0  0  0  0  0  0  0  0  0
   23.3316   33.1233   38.2778 C   0  0  1  0  0  0  0  0  0  0  0  0
   23.5850   34.1126   39.3446 N   0  0  0  0  0  0  0  0  0  0  0  0
   16.3065   26.2695   34.2149 C   0  0  2  0  0  0  0  0  0  0  0  0
   15.6092   25.0307   34.3793 O   0  0  0  0  0  0  0  0  0  0  0  0
   20.3340   27.6773   36.4334 C   0  0  2  0  0  0  0  0  0  0  0  0
   23.3672   33.8128   36.8772 C   0  0  1  0  0  0  0  0  0  0  0  0
   24.6562   34.3884   36.6918 O   0  0  0  0  0  0  0  0  0  0  0  0
   17.8708   26.0419   34.0501 C   0  0  2  0  0  0  0  0  0  0  0  0
   18.5741   27.3343   33.8920 O   0  0  0  0  0  0  0  0  0  0  0  0
   20.8234   29.1036   36.8042 C   0  0  2  0  0  0  0  0  0  0  0  0
   20.6014   29.9523   35.6799 O   0  0  0  0  0  0  0  0  0  0  0  0
   23.1010   32.7354   35.7772 C   0  0  0  0  0  0  0  0  0  0  0  0
   24.0743   31.6207   35.8673 O   0  0  0  0  0  0  0  0  0  0  0  0
   18.2212   25.1545   32.8212 C   0  0  2  0  0  0  0  0  0  0  0  0
   17.4724   23.9361   32.8902 O   0  0  0  0  0  0  0  0  0  0  0  0
   22.3379   29.1277   37.1268 C   0  0  1  0  0  0  0  0  0  0  0  0
   22.6956   30.4907   37.4859 O   0  0  0  0  0  0  0  0  0  0  0  0
   19.6899   24.7942   32.7770 C   0  0  0  0  0  0  0  0  0  0  0  0
   22.3322   34.9323   36.7578 C   0  0  0  0  0  0  0  0  0  0  0  0
   22.7100   33.7641   40.4908 C   0  0  0  0  0  0  0  0  0  0  0  0
  1  2  1  1  0  0  0
  1  6  1  0  0  0  0
  1 23  1  0  0  0  0
  3  4  1  6  0  0  0
  3  8  1  0  0  0  0
  3 30  1  0  0  0  0
  5  9  1  0  0  0  0
  5 27  1  0  0  0  0
  5 31  1  1  0  0  0
  6  7  1  1  0  0  0
  6 11  1  0  0  0  0
  8 13  1  0  0  0  0
  9 10  1  1  0  0  0
  9 15  1  0  0  0  0
 11 12  1  6  0  0  0
 11 17  1  0  0  0  0
 13 14  1  6  0  0  0
 13 19  1  0  0  0  0
 15 16  1  1  0  0  0
 15 20  1  0  0  0  0
 16 34  1  0  0  0  0
 17 18  1  1  0  0  0
 17 22  1  0  0  0  0
 19  2  1  1  0  0  0
 19 24  1  0  0  0  0
 20 21  1  6  0  0  0
 20 26  1  0  0  0  0
 20 33  1  0  0  0  0
 22 23  1  6  0  0  0
 22 28  1  0  0  0  0
 24 25  1  6  0  0  0
 24 30  1  0  0  0  0
 26 27  1  0  0  0  0
 28 29  1  1  0  0  0
 28 32  1  0  0  0  0
 30 31  1  1  0  0  0
M  END
>  <CHROM.1>
-160.47312873,-169.46595247,-96.98987578,-52.96214831,95.16775435,-148.46819969
20.61563282,29.15323917,36.38558974,2.35869875,0.42389122,-3.04865702

>  <Name>
ligand

>  <RI>
0

>  <Rbt.Current_Directory>
/home/itssahil/PROJECTS/Mol_Feturizer/New_Systems/rnas/4p3s

>  <Rbt.Executable>
rbdock ($Id: //depot/dev/client3/rdock/2013.1/src/exe/rbdock.cxx#4 $)

>  <Rbt.Library>
libRbt.so (2013.1, Build901 2013/11/27)

>  <Rbt.Parameter_File>
/export/apps/rDock/src/rDock_2013.1_src/data/scripts/dock_solv.prm

>  <Rbt.Receptor>
prm/pocket_docking_2.prm

>  <SCORE>
-18.7318

>  <SCORE.INTER>
-16.8905

>  <SCORE.INTER.CONST>
1

>  <SCORE.INTER.POLAR>
0

>  <SCORE.INTER.ROT>
6

>  <SCORE.INTER.SOLV>
19.9881

>  <SCORE.INTER.VDW>
-25.5231

>  <SCORE.INTER.norm>
-0.49678

>  <SCORE.INTRA>
-1.84122

>  <SCORE.INTRA.DIHEDRAL>
-4.1034

>  <SCORE.INTRA.DIHEDRAL.0>
15.8194

>  <SCORE.INTRA.POLAR>
0

>  <SCORE.INTRA.POLAR.0>
0

>  <SCORE.INTRA.REPUL>
0

>  <SCORE.INTRA.REPUL.0>
0

>  <SCORE.INTRA.SOLV>
0.245053

>  <SCORE.INTRA.SOLV.lig_0>
-71.9159

>  <SCORE.INTRA.VDW>
0.0879561

>  <SCORE.INTRA.VDW.0>
-3.53918

>  <SCORE.INTRA.norm>
-0.0541535

>  <SCORE.RESTR>
0

>  <SCORE.RESTR.CAVITY>
0

>  <SCORE.RESTR.norm>
0

>  <SCORE.SYSTEM>
0

>  <SCORE.SYSTEM.CONST>
0

>  <SCORE.SYSTEM.DIHEDRAL>
0

>  <SCORE.SYSTEM.SOLV>
0

>  <SCORE.SYSTEM.norm>
0

>  <SCORE.heavy>
34

>  <SCORE.norm>
-0.550934

>  <RMSD>
0.642

$$$$
ligand
 OpenBabel01301917533D
libRbt.so/2013.1/901 2013/11/27
 34 36  0  0  0  0  0  0  0  0999 V2000
   18.3602   28.3435   34.9764 C   0  0  2  0  0  0  0  0  0  0  0  0
   18.8700   27.8152   36.2048 O   0  0  0  0  0  0  0  0  0  0  0  0
   22.5574   28.1435   38.3723 C   0  0  2  0  0  0  0  0  0  0  0  0
   23.9807   28.0695   38.7290 N   0  0  0  0  0  0  0  0  0  0  0  0
   24.1112   30.9547   37.2588 C   0  0  2  0  0  0  0  0  0  0  0  0
   16.8137   28.5838   35.1531 C   0  0  2  0  0  0  0  0  0  0  0  0
   16.5507   29.5176   36.2598 N   0  0  0  0  0  0  0  0  0  0  0  0
   22.0984   26.7060   37.9342 C   0  0  0  0  0  0  0  0  0  0  0  0
   24.4743   32.0245   38.3629 C   0  0  2  0  0  0  0  0  0  0  0  0
   24.5011   31.4198   39.6443 O   0  0  0  0  0  0  0  0  0  0  0  0
   16.0846   27.2304   35.4097 C   0  0  1  0  0  0  0  0  0  0  0  0
   14.6704   27.4455   35.5721 O   0  0  0  0  0  0  0  0  0  0  0  0
   20.5734   26.7820   37.5720 C   0  0  2  0  0  0  0  0  0  0  0  0
   20.0687   25.4477   37.1393 N   0  0  0  0  0  0  0  0  0  0  0  0
   23.3867   33.1636   38.3192 C   0  0  1  0  0  0  0  0  0  0  0  0
   23.6491   34.1818   39.3562 N   0  0  0  0  0  0  0  0  0  0  0  0
   16.3848   26.2824   34.2252 C   0  0  2  0  0  0  0  0  0  0  0  0
   15.7136   25.0361   34.4355 O   0  0  0  0  0  0  0  0  0  0  0  0
   20.3258   27.8087   36.4258 C   0  0  2  0  0  0  0  0  0  0  0  0
   23.3919   33.8177   36.9013 C   0  0  1  0  0  0  0  0  0  0  0  0
   24.6723   34.3997   36.6792 O   0  0  0  0  0  0  0  0  0  0  0  0
   17.9581   26.0868   34.1128 C   0  0  2  0  0  0  0  0  0  0  0  0
   18.6338   27.3871   33.9063 O   0  0  0  0  0  0  0  0  0  0  0  0
   20.8519   29.2016   36.8669 C   0  0  2  0  0  0  0  0  0  0  0  0
   20.6423   30.1135   35.7906 O   0  0  0  0  0  0  0  0  0  0  0  0
   23.1170   32.7105   35.8335 C   0  0  0  0  0  0  0  0  0  0  0  0
   24.1020   31.6071   35.9348 O   0  0  0  0  0  0  0  0  0  0  0  0
   18.3631   25.1472   32.9409 C   0  0  2  0  0  0  0  0  0  0  0  0
   17.6306   23.9213   33.0443 O   0  0  0  0  0  0  0  0  0  0  0  0
   22.3688   29.1729   37.1777 C   0  0  1  0  0  0  0  0  0  0  0  0
   22.7616   30.5063   37.6049 O   0  0  0  0  0  0  0  0  0  0  0  0
   19.8376   24.8094   32.9629 C   0  0  0  0  0  0  0  0  0  0  0  0
   22.3447   34.9247   36.7717 C   0  0  0  0  0  0  0  0  0  0  0  0
   22.8270   33.8320   40.5405 C   0  0  0  0  0  0  0  0  0  0  0  0
  1  2  1  1  0  0  0
  1  6  1  0  0  0  0
  1 23  1  0  0  0  0
  3  4  1  6  0  0  0
  3  8  1  0  0  0  0
  3 30  1  0  0  0  0
  5  9  1  0  0  0  0
  5 27  1  0  0  0  0
  5 31  1  1  0  0  0
  6  7  1  1  0  0  0
  6 11  1  0  0  0  0
  8 13  1  0  0  0  0
  9 10  1  1  0  0  0
  9 15  1  0  0  0  0
 11 12  1  6  0  0  0
 11 17  1  0  0  0  0
 13 14  1  6  0  0  0
 13 19  1  0  0  0  0
 15 16  1  1  0  0  0
 15 20  1  0  0  0  0
 16 34  1  0  0  0  0
 17 18  1  1  0  0  0
 17 22  1  0  0  0  0
 19  2  1  1  0  0  0
 19 24  1  0  0  0  0
 20 21  1  6  0  0  0
 20 26  1  0  0  0  0
 20 33  1  0  0  0  0
 22 23  1  6  0  0  0
 22 28  1  0  0  0  0
 24 25  1  6  0  0  0
 24 30  1  0  0  0  0
 26 27  1  0  0  0  0
 28 29  1  1  0  0  0
 28 32  1  0  0  0  0
 30 31  1  1  0  0  0
M  END
>  <CHROM.1>
-165.19543549,-161.70042895,-95.35625660,-52.27306673,97.55783350,-153.95803517
20.65759179,29.19819275,36.40757025,2.35284697,0.41162498,-3.03330443

>  <Name>
ligand

>  <RI>
0

>  <Rbt.Current_Directory>
/home/itssahil/PROJECTS/Mol_Feturizer/New_Systems/rnas/4p3s

>  <Rbt.Executable>
rbdock ($Id: //depot/dev/client3/rdock/2013.1/src/exe/rbdock.cxx#4 $)

>  <Rbt.Library>
libRbt.so (2013.1, Build901 2013/11/27)

>  <Rbt.Parameter_File>
/export/apps/rDock/src/rDock_2013.1_src/data/scripts/dock_solv.prm

>  <Rbt.Receptor>
prm/pocket_docking_2.prm

>  <SCORE>
-18.7653

>  <SCORE.INTER>
-16.6564

>  <SCORE.INTER.CONST>
1

>  <SCORE.INTER.POLAR>
0

>  <SCORE.INTER.ROT>
6

>  <SCORE.INTER.SOLV>
19.7272

>  <SCORE.INTER.VDW>
-25.28

>  <SCORE.INTER.norm>
-0.489893

>  <SCORE.INTRA>
-2.10896

>  <SCORE.INTRA.DIHEDRAL>
-4.41856

>  <SCORE.INTRA.DIHEDRAL.0>
15.8194

>  <SCORE.INTRA.POLAR>
0

>  <SCORE.INTRA.POLAR.0>
0

>  <SCORE.INTRA.REPUL>
0

>  <SCORE.INTRA.REPUL.0>
0

>  <SCORE.INTRA.SOLV>
0.43268

>  <SCORE.INTRA.SOLV.lig_0>
-71.9159

>  <SCORE.INTRA.VDW>
-0.116015

>  <SCORE.INTRA.VDW.0>
-3.53918

>  <SCORE.INTRA.norm>
-0.0620282

>  <SCORE.RESTR>
0

>  <SCORE.RESTR.CAVITY>
0

>  <SCORE.RESTR.norm>
0

>  <SCORE.SYSTEM>
0

>  <SCORE.SYSTEM.CONST>
0

>  <SCORE.SYSTEM.DIHEDRAL>
0

>  <SCORE.SYSTEM.SOLV>
0

>  <SCORE.SYSTEM.norm>
0

>  <SCORE.heavy>
34

>  <SCORE.norm>
-0.551921

>  <RMSD>
0.658

$$$$
ligand
 OpenBabel01301917533D
libRbt.so/2013.1/901 2013/11/27
 34 36  0  0  0  0  0  0  0  0999 V2000
   18.4928   28.2485   34.9325 C   0  0  2  0  0  0  0  0  0  0  0  0
   18.9797   27.7474   36.1816 O   0  0  0  0  0  0  0  0  0  0  0  0
   22.6075   28.1827   38.4291 C   0  0  2  0  0  0  0  0  0  0  0  0
   24.0224   28.1371   38.8224 N   0  0  0  0  0  0  0  0  0  0  0  0
   24.1419   30.9947   37.2491 C   0  0  2  0  0  0  0  0  0  0  0  0
   16.9187   28.2485   34.9870 C   0  0  2  0  0  0  0  0  0  0  0  0
   16.4320   29.0827   36.0974 N   0  0  0  0  0  0  0  0  0  0  0  0
   22.1776   26.7279   38.0191 C   0  0  0  0  0  0  0  0  0  0  0  0
   24.4899   32.0798   38.3431 C   0  0  2  0  0  0  0  0  0  0  0  0
   24.5305   31.4864   39.6295 O   0  0  0  0  0  0  0  0  0  0  0  0
   16.3853   26.7919   35.1378 C   0  0  1  0  0  0  0  0  0  0  0  0
   14.9467   26.7872   35.1882 O   0  0  0  0  0  0  0  0  0  0  0  0
   20.6614   26.7740   37.6177 C   0  0  2  0  0  0  0  0  0  0  0  0
   20.1843   25.4220   37.2093 N   0  0  0  0  0  0  0  0  0  0  0  0
   23.3830   33.1999   38.2930 C   0  0  1  0  0  0  0  0  0  0  0  0
   23.6309   34.2310   39.3207 N   0  0  0  0  0  0  0  0  0  0  0  0
   16.9170   25.9526   33.9525 C   0  0  2  0  0  0  0  0  0  0  0  0
   16.4281   24.6124   34.0654 O   0  0  0  0  0  0  0  0  0  0  0  0
   20.4295   27.7662   36.4382 C   0  0  2  0  0  0  0  0  0  0  0  0
   23.3732   33.8420   36.8697 C   0  0  1  0  0  0  0  0  0  0  0  0
   24.6428   34.4438   36.6390 O   0  0  0  0  0  0  0  0  0  0  0  0
   18.5057   25.9978   33.9658 C   0  0  2  0  0  0  0  0  0  0  0  0
   18.9906   27.3919   33.8587 O   0  0  0  0  0  0  0  0  0  0  0  0
   20.9269   29.1773   36.8540 C   0  0  2  0  0  0  0  0  0  0  0  0
   20.7327   30.0569   35.7485 O   0  0  0  0  0  0  0  0  0  0  0  0
   23.1141   32.7214   35.8120 C   0  0  0  0  0  0  0  0  0  0  0  0
   24.1180   31.6357   35.9197 O   0  0  0  0  0  0  0  0  0  0  0  0
   19.1383   25.1818   32.8020 C   0  0  2  0  0  0  0  0  0  0  0  0
   18.4287   25.4608   31.5901 O   0  0  0  0  0  0  0  0  0  0  0  0
   22.4358   29.1769   37.2026 C   0  0  1  0  0  0  0  0  0  0  0  0
   22.8011   30.5264   37.6028 O   0  0  0  0  0  0  0  0  0  0  0  0
   19.0697   23.6905   33.0466 C   0  0  0  0  0  0  0  0  0  0  0  0
   22.3070   34.9299   36.7339 C   0  0  0  0  0  0  0  0  0  0  0  0
   22.8702   33.8419   40.5334 C   0  0  0  0  0  0  0  0  0  0  0  0
  1  2  1  1  0  0  0
  1  6  1  0  0  0  0
  1 23  1  0  0  0  0
  3  4  1  6  0  0  0
  3  8  1  0  0  0  0
  3 30  1  0  0  0  0
  5  9  1  0  0  0  0
  5 27  1  0  0  0  0
  5 31  1  1  0  0  0
  6  7  1  1  0  0  0
  6 11  1  0  0  0  0
  8 13  1  0  0  0  0
  9 10  1  1  0  0  0
  9 15  1  0  0  0  0
 11 12  1  6  0  0  0
 11 17  1  0  0  0  0
 13 14  1  6  0  0  0
 13 19  1  0  0  0  0
 15 16  1  1  0  0  0
 15 20  1  0  0  0  0
 16 34  1  0  0  0  0
 17 18  1  1  0  0  0
 17 22  1  0  0  0  0
 19  2  1  1  0  0  0
 19 24  1  0  0  0  0
 20 21  1  6  0  0  0
 20 26  1  0  0  0  0
 20 33  1  0  0  0  0
 22 23  1  6  0  0  0
 22 28  1  0  0  0  0
 24 25  1  6  0  0  0
 24 30  1  0  0  0  0
 26 27  1  0  0  0  0
 28 29  1  6  0  0  0
 28 32  1  0  0  0  0
 30 31  1  1  0  0  0
M  END
>  <CHROM.1>
-174.19864519,-162.33648438,-92.64041741,44.27408347,99.01283149,-153.20640085
20.79162554,29.14086797,36.30352703,2.38489624,0.57189220,3.13134670

>  <Name>
ligand

>  <RI>
0

>  <Rbt.Current_Directory>
/home/itssahil/PROJECTS/Mol_Feturizer/New_Systems/rnas/4p3s

>  <Rbt.Executable>
rbdock ($Id: //depot/dev/client3/rdock/2013.1/src/exe/rbdock.cxx#4 $)

>  <Rbt.Library>
libRbt.so (2013.1, Build901 2013/11/27)

>  <Rbt.Parameter_File>
/export/apps/rDock/src/rDock_2013.1_src/data/scripts/dock_solv.prm

>  <Rbt.Receptor>
prm/pocket_docking_2.prm

>  <SCORE>
-18.8389

>  <SCORE.INTER>
-16.8291

>  <SCORE.INTER.CONST>
1

>  <SCORE.INTER.POLAR>
0

>  <SCORE.INTER.ROT>
6

>  <SCORE.INTER.SOLV>
21.3907

>  <SCORE.INTER.VDW>
-25.9496

>  <SCORE.INTER.norm>
-0.494973

>  <SCORE.INTRA>
-2.01221

>  <SCORE.INTRA.DIHEDRAL>
-4.47305

>  <SCORE.INTRA.DIHEDRAL.0>
15.8194

>  <SCORE.INTRA.POLAR>
0

>  <SCORE.INTRA.POLAR.0>
0

>  <SCORE.INTRA.REPUL>
0

>  <SCORE.INTRA.REPUL.0>
0

>  <SCORE.INTRA.SOLV>
0.130309

>  <SCORE.INTRA.SOLV.lig_0>
-71.9159

>  <SCORE.INTRA.VDW>
0.159158

>  <SCORE.INTRA.VDW.0>
-3.53918

>  <SCORE.INTRA.norm>
-0.0591828

>  <SCORE.RESTR>
0.00238615

>  <SCORE.RESTR.CAVITY>
0.00238615

>  <SCORE.RESTR.norm>
7.01809e-05

>  <SCORE.SYSTEM>
0

>  <SCORE.SYSTEM.CONST>
0

>  <SCORE.SYSTEM.DIHEDRAL>
0

>  <SCORE.SYSTEM.SOLV>
0

>  <SCORE.SYSTEM.norm>
0

>  <SCORE.heavy>
34

>  <SCORE.norm>
-0.554086

>  <RMSD>
0.661

$$$$
ligand
 OpenBabel01301917533D
libRbt.so/2013.1/901 2013/11/27
 34 36  0  0  0  0  0  0  0  0999 V2000
   18.6360   27.9834   34.8994 C   0  0  2  0  0  0  0  0  0  0  0  0
   19.0873   27.5709   36.1934 O   0  0  0  0  0  0  0  0  0  0  0  0
   22.6480   28.0605   38.5352 C   0  0  2  0  0  0  0  0  0  0  0  0
   24.0523   28.0344   38.9663 N   0  0  0  0  0  0  0  0  0  0  0  0
   24.1868   30.8778   37.4113 C   0  0  2  0  0  0  0  0  0  0  0  0
   17.0664   28.1054   34.9461 C   0  0  2  0  0  0  0  0  0  0  0  0
   16.6455   29.0769   35.9684 N   0  0  0  0  0  0  0  0  0  0  0  0
   22.2477   26.5989   38.1195 C   0  0  0  0  0  0  0  0  0  0  0  0
   24.4592   32.0051   38.4839 C   0  0  2  0  0  0  0  0  0  0  0  0
   24.4336   31.4575   39.7908 O   0  0  0  0  0  0  0  0  0  0  0  0
   16.4267   26.7137   35.2345 C   0  0  1  0  0  0  0  0  0  0  0  0
   14.9918   26.8206   35.2782 O   0  0  0  0  0  0  0  0  0  0  0  0
   20.7423   26.6242   37.6777 C   0  0  2  0  0  0  0  0  0  0  0  0
   20.2935   25.2647   37.2618 N   0  0  0  0  0  0  0  0  0  0  0  0
   23.3437   33.1073   38.3317 C   0  0  1  0  0  0  0  0  0  0  0  0
   23.5206   34.1770   39.3344 N   0  0  0  0  0  0  0  0  0  0  0  0
   16.8918   25.7266   34.1384 C   0  0  2  0  0  0  0  0  0  0  0  0
   16.3051   24.4435   34.3780 O   0  0  0  0  0  0  0  0  0  0  0  0
   20.5294   27.6091   36.4886 C   0  0  2  0  0  0  0  0  0  0  0  0
   23.4072   33.6992   36.8881 C   0  0  1  0  0  0  0  0  0  0  0  0
   24.6807   34.3101   36.7081 O   0  0  0  0  0  0  0  0  0  0  0  0
   18.4795   25.6551   34.1549 C   0  0  2  0  0  0  0  0  0  0  0  0
   19.0662   26.9925   33.9158 O   0  0  0  0  0  0  0  0  0  0  0  0
   20.9975   29.0279   36.9121 C   0  0  2  0  0  0  0  0  0  0  0  0
   20.8218   29.9011   35.7983 O   0  0  0  0  0  0  0  0  0  0  0  0
   23.2220   32.5390   35.8581 C   0  0  0  0  0  0  0  0  0  0  0  0
   24.2309   31.4717   36.0607 O   0  0  0  0  0  0  0  0  0  0  0  0
   19.0470   24.6857   33.0784 C   0  0  2  0  0  0  0  0  0  0  0  0
   20.4696   24.6046   33.2198 O   0  0  0  0  0  0  0  0  0  0  0  0
   22.4964   29.0482   37.3007 C   0  0  1  0  0  0  0  0  0  0  0  0
   22.8338   30.4036   37.7053 O   0  0  0  0  0  0  0  0  0  0  0  0
   18.7469   25.1550   31.6719 C   0  0  0  0  0  0  0  0  0  0  0  0
   22.3376   34.7669   36.6538 C   0  0  0  0  0  0  0  0  0  0  0  0
   22.6766   33.8329   40.5049 C   0  0  0  0  0  0  0  0  0  0  0  0
  1  2  1  1  0  0  0
  1  6  1  0  0  0  0
  1 23  1  0  0  0  0
  3  4  1  6  0  0  0
  3  8  1  0  0  0  0
  3 30  1  0  0  0  0
  5  9  1  0  0  0  0
  5 27  1  0  0  0  0
  5 31  1  1  0  0  0
  6  7  1  1  0  0  0
  6 11  1  0  0  0  0
  8 13  1  0  0  0  0
  9 10  1  1  0  0  0
  9 15  1  0  0  0  0
 11 12  1  6  0  0  0
 11 17  1  0  0  0  0
 13 14  1  6  0  0  0
 13 19  1  0  0  0  0
 15 16  1  1  0  0  0
 15 20  1  0  0  0  0
 16 34  1  0  0  0  0
 17 18  1  1  0  0  0
 17 22  1  0  0  0  0
 19  2  1  1  0  0  0
 19 24  1  0  0  0  0
 20 21  1  6  0  0  0
 20 26  1  0  0  0  0
 20 33  1  0  0  0  0
 22 23  1  6  0  0  0
 22 28  1  0  0  0  0
 24 25  1  6  0  0  0
 24 30  1  0  0  0  0
 26 27  1  0  0  0  0
 28 29  1  6  0  0  0
 28 32  1  0  0  0  0
 30 31  1  1  0  0  0
M  END
>  <CHROM.1>
-169.39749390,-158.49699645,-93.70333759,-175.93006086,97.73247577,-154.83451174
20.88031007,29.01884335,36.38871278,2.33698494,0.51337146,-3.08313110

>  <Name>
ligand

>  <RI>
0

>  <Rbt.Current_Directory>
/home/itssahil/PROJECTS/Mol_Feturizer/New_Systems/rnas/4p3s

>  <Rbt.Executable>
rbdock ($Id: //depot/dev/client3/rdock/2013.1/src/exe/rbdock.cxx#4 $)

>  <Rbt.Library>
libRbt.so (2013.1, Build901 2013/11/27)

>  <Rbt.Parameter_File>
/export/apps/rDock/src/rDock_2013.1_src/data/scripts/dock_solv.prm

>  <Rbt.Receptor>
prm/pocket_docking_4.prm

>  <SCORE>
-18.8753

>  <SCORE.INTER>
-16.758

>  <SCORE.INTER.CONST>
1

>  <SCORE.INTER.POLAR>
0

>  <SCORE.INTER.ROT>
6

>  <SCORE.INTER.SOLV>
21.9502

>  <SCORE.INTER.VDW>
-26.0887

>  <SCORE.INTER.norm>
-0.492882

>  <SCORE.INTRA>
-2.11731

>  <SCORE.INTRA.DIHEDRAL>
-4.72831

>  <SCORE.INTRA.DIHEDRAL.0>
15.8194

>  <SCORE.INTRA.POLAR>
0

>  <SCORE.INTRA.POLAR.0>
0

>  <SCORE.INTRA.REPUL>
0

>  <SCORE.INTRA.REPUL.0>
0

>  <SCORE.INTRA.SOLV>
0.0146538

>  <SCORE.INTRA.SOLV.lig_0>
-71.9159

>  <SCORE.INTRA.VDW>
0.239513

>  <SCORE.INTRA.VDW.0>
-3.53918

>  <SCORE.INTRA.norm>
-0.062274

>  <SCORE.RESTR>
0

>  <SCORE.RESTR.CAVITY>
0

>  <SCORE.RESTR.norm>
0

>  <SCORE.SYSTEM>
0

>  <SCORE.SYSTEM.CONST>
0

>  <SCORE.SYSTEM.DIHEDRAL>
0

>  <SCORE.SYSTEM.SOLV>
0

>  <SCORE.SYSTEM.norm>
0

>  <SCORE.heavy>
34

>  <SCORE.norm>
-0.555156

>  <RMSD>
0.664

$$$$
ligand
 OpenBabel01301917533D
libRbt.so/2013.1/901 2013/11/27
 34 36  0  0  0  0  0  0  0  0999 V2000
   18.4456   28.2540   35.1404 C   0  0  2  0  0  0  0  0  0  0  0  0
   18.9868   27.6762   36.3326 O   0  0  0  0  0  0  0  0  0  0  0  0
   22.6758   28.1680   38.4661 C   0  0  2  0  0  0  0  0  0  0  0  0
   24.1027   28.1440   38.8153 N   0  0  0  0  0  0  0  0  0  0  0  0
   24.1558   30.9773   37.2982 C   0  0  2  0  0  0  0  0  0  0  0  0
   16.8763   28.2697   35.2747 C   0  0  2  0  0  0  0  0  0  0  0  0
   16.4582   29.0444   36.4541 N   0  0  0  0  0  0  0  0  0  0  0  0
   22.2551   26.7066   38.0706 C   0  0  0  0  0  0  0  0  0  0  0  0
   24.4919   32.0610   38.3972 C   0  0  2  0  0  0  0  0  0  0  0  0
   24.5122   31.4673   39.6839 O   0  0  0  0  0  0  0  0  0  0  0  0
   16.3296   26.8133   35.3694 C   0  0  1  0  0  0  0  0  0  0  0  0
   14.8953   26.8230   35.4924 O   0  0  0  0  0  0  0  0  0  0  0  0
   20.7266   26.7296   37.7165 C   0  0  2  0  0  0  0  0  0  0  0  0
   20.2574   25.3701   37.3240 N   0  0  0  0  0  0  0  0  0  0  0  0
   23.3896   33.1849   38.3317 C   0  0  1  0  0  0  0  0  0  0  0  0
   23.6264   34.2150   39.3629 N   0  0  0  0  0  0  0  0  0  0  0  0
   16.7888   26.0373   34.1128 C   0  0  2  0  0  0  0  0  0  0  0  0
   16.2863   24.6988   34.1740 O   0  0  0  0  0  0  0  0  0  0  0  0
   20.4434   27.7168   36.5442 C   0  0  2  0  0  0  0  0  0  0  0  0
   23.4022   33.8272   36.9084 C   0  0  1  0  0  0  0  0  0  0  0  0
   24.6770   34.4247   36.6959 O   0  0  0  0  0  0  0  0  0  0  0  0
   18.3766   26.0627   34.0479 C   0  0  2  0  0  0  0  0  0  0  0  0
   18.8762   27.4548   33.9958 O   0  0  0  0  0  0  0  0  0  0  0  0
   20.9323   29.1357   36.9434 C   0  0  2  0  0  0  0  0  0  0  0  0
   20.6908   30.0111   35.8439 O   0  0  0  0  0  0  0  0  0  0  0  0
   23.1544   32.7076   35.8470 C   0  0  0  0  0  0  0  0  0  0  0  0
   24.1529   31.6185   35.9687 O   0  0  0  0  0  0  0  0  0  0  0  0
   18.9381   25.3076   32.8090 C   0  0  2  0  0  0  0  0  0  0  0  0
   18.1703   25.6610   31.6532 O   0  0  0  0  0  0  0  0  0  0  0  0
   22.4512   29.1583   37.2450 C   0  0  1  0  0  0  0  0  0  0  0  0
   22.8085   30.5135   37.6327 O   0  0  0  0  0  0  0  0  0  0  0  0
   18.8638   23.8056   32.9733 C   0  0  0  0  0  0  0  0  0  0  0  0
   22.3417   34.9188   36.7577 C   0  0  0  0  0  0  0  0  0  0  0  0
   22.8280   33.8413   40.5561 C   0  0  0  0  0  0  0  0  0  0  0  0
  1  2  1  1  0  0  0
  1  6  1  0  0  0  0
  1 23  1  0  0  0  0
  3  4  1  6  0  0  0
  3  8  1  0  0  0  0
  3 30  1  0  0  0  0
  5  9  1  0  0  0  0
  5 27  1  0  0  0  0
  5 31  1  1  0  0  0
  6  7  1  1  0  0  0
  6 11  1  0  0  0  0
  8 13  1  0  0  0  0
  9 10  1  1  0  0  0
  9 15  1  0  0  0  0
 11 12  1  6  0  0  0
 11 17  1  0  0  0  0
 13 14  1  6  0  0  0
 13 19  1  0  0  0  0
 15 16  1  1  0  0  0
 15 20  1  0  0  0  0
 16 34  1  0  0  0  0
 17 18  1  1  0  0  0
 17 22  1  0  0  0  0
 19  2  1  1  0  0  0
 19 24  1  0  0  0  0
 20 21  1  6  0  0  0
 20 26  1  0  0  0  0
 20 33  1  0  0  0  0
 22 23  1  6  0  0  0
 22 28  1  0  0  0  0
 24 25  1  6  0  0  0
 24 30  1  0  0  0  0
 26 27  1  0  0  0  0
 28 29  1  6  0  0  0
 28 32  1  0  0  0  0
 30 31  1  1  0  0  0
M  END
>  <CHROM.1>
-171.48388735,-166.69944865,-93.64183281,44.09273511,95.91570977,-152.30388480
20.76515427,29.14923319,36.39575854,2.40151454,0.56018582,3.11959335

>  <Name>
ligand

>  <RI>
0

>  <Rbt.Current_Directory>
/home/itssahil/PROJECTS/Mol_Feturizer/New_Systems/rnas/4p3s

>  <Rbt.Executable>
rbdock ($Id: //depot/dev/client3/rdock/2013.1/src/exe/rbdock.cxx#4 $)

>  <Rbt.Library>
libRbt.so (2013.1, Build901 2013/11/27)

>  <Rbt.Parameter_File>
/export/apps/rDock/src/rDock_2013.1_src/data/scripts/dock_solv.prm

>  <Rbt.Receptor>
prm/pocket_docking_2.prm

>  <SCORE>
-19.0198

>  <SCORE.INTER>
-16.583

>  <SCORE.INTER.CONST>
1

>  <SCORE.INTER.POLAR>
0

>  <SCORE.INTER.ROT>
6

>  <SCORE.INTER.SOLV>
21.1582

>  <SCORE.INTER.VDW>
-25.7081

>  <SCORE.INTER.norm>
-0.487736

>  <SCORE.INTRA>
-2.43978

>  <SCORE.INTRA.DIHEDRAL>
-5.19201

>  <SCORE.INTRA.DIHEDRAL.0>
15.8194

>  <SCORE.INTRA.POLAR>
0

>  <SCORE.INTRA.POLAR.0>
0

>  <SCORE.INTRA.REPUL>
0

>  <SCORE.INTRA.REPUL.0>
0

>  <SCORE.INTRA.SOLV>
-0.117903

>  <SCORE.INTRA.SOLV.lig_0>
-71.9159

>  <SCORE.INTRA.VDW>
0.215179

>  <SCORE.INTRA.VDW.0>
-3.53918

>  <SCORE.INTRA.norm>
-0.0717581

>  <SCORE.RESTR>
0.00297336

>  <SCORE.RESTR.CAVITY>
0.00297336

>  <SCORE.RESTR.norm>
8.74518e-05

>  <SCORE.SYSTEM>
0

>  <SCORE.SYSTEM.CONST>
0

>  <SCORE.SYSTEM.DIHEDRAL>
0

>  <SCORE.SYSTEM.SOLV>
0

>  <SCORE.SYSTEM.norm>
0

>  <SCORE.heavy>
34

>  <SCORE.norm>
-0.559407

>  <RMSD>
0.668

$$$$
ligand
 OpenBabel01301917533D
libRbt.so/2013.1/901 2013/11/27
 34 36  0  0  0  0  0  0  0  0999 V2000
   18.2978   28.2934   35.0153 C   0  0  2  0  0  0  0  0  0  0  0  0
   18.8264   27.7857   36.2445 O   0  0  0  0  0  0  0  0  0  0  0  0
   22.5382   28.1465   38.3645 C   0  0  2  0  0  0  0  0  0  0  0  0
   23.9665   28.0843   38.7032 N   0  0  0  0  0  0  0  0  0  0  0  0
   24.0776   30.9437   37.2847 C   0  0  2  0  0  0  0  0  0  0  0  0
   16.7566   28.5491   35.2155 C   0  0  2  0  0  0  0  0  0  0  0  0
   16.5209   29.5067   36.3079 N   0  0  0  0  0  0  0  0  0  0  0  0
   22.0850   26.7047   37.9343 C   0  0  0  0  0  0  0  0  0  0  0  0
   24.4179   32.0135   38.3960 C   0  0  2  0  0  0  0  0  0  0  0  0
   24.4000   31.4128   39.6794 O   0  0  0  0  0  0  0  0  0  0  0  0
   16.0224   27.2067   35.5125 C   0  0  1  0  0  0  0  0  0  0  0  0
   14.6132   27.4358   35.6964 O   0  0  0  0  0  0  0  0  0  0  0  0
   20.5551   26.7681   37.5914 C   0  0  2  0  0  0  0  0  0  0  0  0
   20.0555   25.4292   37.1671 N   0  0  0  0  0  0  0  0  0  0  0  0
   23.3434   33.1631   38.3161 C   0  0  1  0  0  0  0  0  0  0  0  0
   23.5844   34.1820   39.3575 N   0  0  0  0  0  0  0  0  0  0  0  0
   16.2938   26.2330   34.3419 C   0  0  2  0  0  0  0  0  0  0  0  0
   15.6175   24.9964   34.5893 O   0  0  0  0  0  0  0  0  0  0  0  0
   20.2848   27.7911   36.4470 C   0  0  2  0  0  0  0  0  0  0  0  0
   23.3978   33.8124   36.8971 C   0  0  1  0  0  0  0  0  0  0  0  0
   24.6899   34.3812   36.7119 O   0  0  0  0  0  0  0  0  0  0  0  0
   17.8632   26.0231   34.2046 C   0  0  2  0  0  0  0  0  0  0  0  0
   18.5446   27.3139   33.9597 O   0  0  0  0  0  0  0  0  0  0  0  0
   20.8054   29.1888   36.8794 C   0  0  2  0  0  0  0  0  0  0  0  0
   20.5749   30.0973   35.8045 O   0  0  0  0  0  0  0  0  0  0  0  0
   23.1443   32.7045   35.8248 C   0  0  0  0  0  0  0  0  0  0  0  0
   24.1148   31.5918   35.9590 O   0  0  0  0  0  0  0  0  0  0  0  0
   18.2396   25.0573   33.0444 C   0  0  2  0  0  0  0  0  0  0  0  0
   17.5646   23.8087   33.2323 O   0  0  0  0  0  0  0  0  0  0  0  0
   22.3263   29.1725   37.1709 C   0  0  1  0  0  0  0  0  0  0  0  0
   22.7139   30.5096   37.5911 O   0  0  0  0  0  0  0  0  0  0  0  0
   19.7255   24.7779   32.9930 C   0  0  0  0  0  0  0  0  0  0  0  0
   22.3660   34.9292   36.7326 C   0  0  0  0  0  0  0  0  0  0  0  0
   22.7212   33.8460   40.5163 C   0  0  0  0  0  0  0  0  0  0  0  0
  1  2  1  1  0  0  0
  1  6  1  0  0  0  0
  1 23  1  0  0  0  0
  3  4  1  6  0  0  0
  3  8  1  0  0  0  0
  3 30  1  0  0  0  0
  5  9  1  0  0  0  0
  5 27  1  0  0  0  0
  5 31  1  1  0  0  0
  6  7  1  1  0  0  0
  6 11  1  0  0  0  0
  8 13  1  0  0  0  0
  9 10  1  1  0  0  0
  9 15  1  0  0  0  0
 11 12  1  6  0  0  0
 11 17  1  0  0  0  0
 13 14  1  6  0  0  0
 13 19  1  0  0  0  0
 15 16  1  1  0  0  0
 15 20  1  0  0  0  0
 16 34  1  0  0  0  0
 17 18  1  1  0  0  0
 17 22  1  0  0  0  0
 19  2  1  1  0  0  0
 19 24  1  0  0  0  0
 20 21  1  6  0  0  0
 20 26  1  0  0  0  0
 20 33  1  0  0  0  0
 22 23  1  6  0  0  0
 22 28  1  0  0  0  0
 24 25  1  6  0  0  0
 24 30  1  0  0  0  0
 26 27  1  0  0  0  0
 28 29  1  1  0  0  0
 28 32  1  0  0  0  0
 30 31  1  1  0  0  0
M  END
>  <CHROM.1>
-164.28942433,-160.96384821,-95.48627607,-55.88375802,94.63949851,-153.21471839
20.60937322,29.17637828,36.44566589,2.34633033,0.38683147,-3.02505385

>  <Name>
ligand

>  <RI>
0

>  <Rbt.Current_Directory>
/home/itssahil/PROJECTS/Mol_Feturizer/New_Systems/rnas/4p3s

>  <Rbt.Executable>
rbdock ($Id: //depot/dev/client3/rdock/2013.1/src/exe/rbdock.cxx#4 $)

>  <Rbt.Library>
libRbt.so (2013.1, Build901 2013/11/27)

>  <Rbt.Parameter_File>
/export/apps/rDock/src/rDock_2013.1_src/data/scripts/dock_solv.prm

>  <Rbt.Receptor>
prm/pocket_docking_2.prm

>  <SCORE>
-18.938

>  <SCORE.INTER>
-16.7151

>  <SCORE.INTER.CONST>
1

>  <SCORE.INTER.POLAR>
0

>  <SCORE.INTER.ROT>
6

>  <SCORE.INTER.SOLV>
19.48

>  <SCORE.INTER.VDW>
-25.2367

>  <SCORE.INTER.norm>
-0.491622

>  <SCORE.INTRA>
-2.22285

>  <SCORE.INTRA.DIHEDRAL>
-4.71311

>  <SCORE.INTRA.DIHEDRAL.0>
15.8194

>  <SCORE.INTRA.POLAR>
0

>  <SCORE.INTRA.POLAR.0>
0

>  <SCORE.INTRA.REPUL>
0

>  <SCORE.INTRA.REPUL.0>
0

>  <SCORE.INTRA.SOLV>
0.522551

>  <SCORE.INTRA.SOLV.lig_0>
-71.9159

>  <SCORE.INTRA.VDW>
-0.127573

>  <SCORE.INTRA.VDW.0>
-3.53918

>  <SCORE.INTRA.norm>
-0.065378

>  <SCORE.RESTR>
0

>  <SCORE.RESTR.CAVITY>
0

>  <SCORE.RESTR.norm>
0

>  <SCORE.SYSTEM>
0

>  <SCORE.SYSTEM.CONST>
0

>  <SCORE.SYSTEM.DIHEDRAL>
0

>  <SCORE.SYSTEM.SOLV>
0

>  <SCORE.SYSTEM.norm>
0

>  <SCORE.heavy>
34

>  <SCORE.norm>
-0.557

>  <RMSD>
0.673

$$$$
ligand
 OpenBabel01301917533D
libRbt.so/2013.1/901 2013/11/27
 34 36  0  0  0  0  0  0  0  0999 V2000
   18.5327   28.2694   35.0956 C   0  0  2  0  0  0  0  0  0  0  0  0
   19.0484   27.6805   36.2937 O   0  0  0  0  0  0  0  0  0  0  0  0
   22.6906   28.1833   38.5036 C   0  0  2  0  0  0  0  0  0  0  0  0
   24.1094   28.1592   38.8845 N   0  0  0  0  0  0  0  0  0  0  0  0
   24.1870   30.9946   37.3000 C   0  0  2  0  0  0  0  0  0  0  0  0
   16.9640   28.3346   35.2200 C   0  0  2  0  0  0  0  0  0  0  0  0
   16.5630   29.1275   36.3933 N   0  0  0  0  0  0  0  0  0  0  0  0
   22.2751   26.7193   38.1123 C   0  0  0  0  0  0  0  0  0  0  0  0
   24.5313   32.0772   38.3977 C   0  0  2  0  0  0  0  0  0  0  0  0
   24.5736   31.4796   39.6821 O   0  0  0  0  0  0  0  0  0  0  0  0
   16.3715   26.8964   35.3178 C   0  0  1  0  0  0  0  0  0  0  0  0
   14.9375   26.9513   35.4319 O   0  0  0  0  0  0  0  0  0  0  0  0
   20.7548   26.7426   37.7243 C   0  0  2  0  0  0  0  0  0  0  0  0
   20.2909   25.3807   37.3339 N   0  0  0  0  0  0  0  0  0  0  0  0
   23.4207   33.1938   38.3512 C   0  0  1  0  0  0  0  0  0  0  0  0
   23.6651   34.2223   39.3823 N   0  0  0  0  0  0  0  0  0  0  0  0
   16.8139   26.1006   34.0676 C   0  0  2  0  0  0  0  0  0  0  0  0
   16.2696   24.7787   34.1316 O   0  0  0  0  0  0  0  0  0  0  0  0
   20.5001   27.7197   36.5370 C   0  0  2  0  0  0  0  0  0  0  0  0
   23.4090   33.8405   36.9300 C   0  0  1  0  0  0  0  0  0  0  0  0
   24.6767   34.4473   36.7014 O   0  0  0  0  0  0  0  0  0  0  0  0
   18.4021   26.0762   34.0125 C   0  0  2  0  0  0  0  0  0  0  0  0
   18.9452   27.4518   33.9572 O   0  0  0  0  0  0  0  0  0  0  0  0
   20.9837   29.1410   36.9340 C   0  0  2  0  0  0  0  0  0  0  0  0
   20.7687   30.0069   35.8214 O   0  0  0  0  0  0  0  0  0  0  0  0
   23.1538   32.7226   35.8686 C   0  0  0  0  0  0  0  0  0  0  0  0
   24.1612   31.6399   35.9727 O   0  0  0  0  0  0  0  0  0  0  0  0
   18.9473   25.2982   32.7805 C   0  0  2  0  0  0  0  0  0  0  0  0
   18.2034   25.6762   31.6169 O   0  0  0  0  0  0  0  0  0  0  0  0
   22.4956   29.1628   37.2688 C   0  0  1  0  0  0  0  0  0  0  0  0
   22.8477   30.5207   37.6520 O   0  0  0  0  0  0  0  0  0  0  0  0
   18.8173   23.8003   32.9474 C   0  0  0  0  0  0  0  0  0  0  0  0
   22.3393   34.9254   36.7976 C   0  0  0  0  0  0  0  0  0  0  0  0
   22.8694   33.8508   40.5780 C   0  0  0  0  0  0  0  0  0  0  0  0
  1  2  1  1  0  0  0
  1  6  1  0  0  0  0
  1 23  1  0  0  0  0
  3  4  1  6  0  0  0
  3  8  1  0  0  0  0
  3 30  1  0  0  0  0
  5  9  1  0  0  0  0
  5 27  1  0  0  0  0
  5 31  1  1  0  0  0
  6  7  1  1  0  0  0
  6 11  1  0  0  0  0
  8 13  1  0  0  0  0
  9 10  1  1  0  0  0
  9 15  1  0  0  0  0
 11 12  1  6  0  0  0
 11 17  1  0  0  0  0
 13 14  1  6  0  0  0
 13 19  1  0  0  0  0
 15 16  1  1  0  0  0
 15 20  1  0  0  0  0
 16 34  1  0  0  0  0
 17 18  1  1  0  0  0
 17 22  1  0  0  0  0
 19  2  1  1  0  0  0
 19 24  1  0  0  0  0
 20 21  1  6  0  0  0
 20 26  1  0  0  0  0
 20 33  1  0  0  0  0
 22 23  1  6  0  0  0
 22 28  1  0  0  0  0
 24 25  1  6  0  0  0
 24 30  1  0  0  0  0
 26 27  1  0  0  0  0
 28 29  1  6  0  0  0
 28 32  1  0  0  0  0
 30 31  1  1  0  0  0
M  END
>  <CHROM.1>
-169.31391445,-167.77817215,-94.50668017,44.44601520,98.06829120,-152.10711215
20.79886090,29.17193457,36.38830946,2.41344786,0.58052360,3.10536441

>  <Name>
ligand

>  <RI>
0

>  <Rbt.Current_Directory>
/home/itssahil/PROJECTS/Mol_Feturizer/New_Systems/rnas/4p3s

>  <Rbt.Executable>
rbdock ($Id: //depot/dev/client3/rdock/2013.1/src/exe/rbdock.cxx#4 $)

>  <Rbt.Library>
libRbt.so (2013.1, Build901 2013/11/27)

>  <Rbt.Parameter_File>
/export/apps/rDock/src/rDock_2013.1_src/data/scripts/dock_solv.prm

>  <Rbt.Receptor>
prm/pocket_docking_2.prm

>  <SCORE>
-18.8709

>  <SCORE.INTER>
-16.675

>  <SCORE.INTER.CONST>
1

>  <SCORE.INTER.POLAR>
0

>  <SCORE.INTER.ROT>
6

>  <SCORE.INTER.SOLV>
21.2531

>  <SCORE.INTER.VDW>
-25.801

>  <SCORE.INTER.norm>
-0.490442

>  <SCORE.INTRA>
-2.21303

>  <SCORE.INTRA.DIHEDRAL>
-4.72252

>  <SCORE.INTRA.DIHEDRAL.0>
15.8194

>  <SCORE.INTRA.POLAR>
0

>  <SCORE.INTRA.POLAR.0>
0

>  <SCORE.INTRA.REPUL>
0

>  <SCORE.INTRA.REPUL.0>
0

>  <SCORE.INTRA.SOLV>
-0.136036

>  <SCORE.INTRA.SOLV.lig_0>
-71.9159

>  <SCORE.INTRA.VDW>
0.216248

>  <SCORE.INTRA.VDW.0>
-3.53918

>  <SCORE.INTRA.norm>
-0.0650891

>  <SCORE.RESTR>
0.0171509

>  <SCORE.RESTR.CAVITY>
0.0171509

>  <SCORE.RESTR.norm>
0.000504439

>  <SCORE.SYSTEM>
0

>  <SCORE.SYSTEM.CONST>
0

>  <SCORE.SYSTEM.DIHEDRAL>
0

>  <SCORE.SYSTEM.SOLV>
0

>  <SCORE.SYSTEM.norm>
0

>  <SCORE.heavy>
34

>  <SCORE.norm>
-0.555026

>  <RMSD>
0.675

$$$$
ligand
 OpenBabel01301917533D
libRbt.so/2013.1/901 2013/11/27
 34 36  0  0  0  0  0  0  0  0999 V2000
   18.4491   28.3376   35.1092 C   0  0  2  0  0  0  0  0  0  0  0  0
   18.9717   27.7618   36.3107 O   0  0  0  0  0  0  0  0  0  0  0  0
   22.6467   28.2107   38.4776 C   0  0  2  0  0  0  0  0  0  0  0  0
   24.0700   28.1698   38.8398 N   0  0  0  0  0  0  0  0  0  0  0  0
   24.1540   31.0185   37.2780 C   0  0  2  0  0  0  0  0  0  0  0  0
   16.8774   28.3345   35.2102 C   0  0  2  0  0  0  0  0  0  0  0  0
   16.4252   29.1000   36.3830 N   0  0  0  0  0  0  0  0  0  0  0  0
   22.2122   26.7542   38.0791 C   0  0  0  0  0  0  0  0  0  0  0  0
   24.5021   32.1254   38.3499 C   0  0  2  0  0  0  0  0  0  0  0  0
   24.5473   31.5571   39.6474 O   0  0  0  0  0  0  0  0  0  0  0  0
   16.3459   26.8715   35.2883 C   0  0  1  0  0  0  0  0  0  0  0  0
   14.9093   26.8640   35.3809 O   0  0  0  0  0  0  0  0  0  0  0  0
   20.6874   26.7953   37.7110 C   0  0  2  0  0  0  0  0  0  0  0  0
   20.2054   25.4414   37.3149 N   0  0  0  0  0  0  0  0  0  0  0  0
   23.3923   33.2416   38.2810 C   0  0  1  0  0  0  0  0  0  0  0  0
   23.6403   34.2930   39.2879 N   0  0  0  0  0  0  0  0  0  0  0  0
   16.8407   26.1055   34.0391 C   0  0  2  0  0  0  0  0  0  0  0  0
   16.3528   24.7609   34.0852 O   0  0  0  0  0  0  0  0  0  0  0  0
   20.4268   27.7851   36.5355 C   0  0  2  0  0  0  0  0  0  0  0  0
   23.3773   33.8560   36.8455 C   0  0  1  0  0  0  0  0  0  0  0  0
   24.6449   34.4563   36.6000 O   0  0  0  0  0  0  0  0  0  0  0  0
   18.4292   26.1496   34.0081 C   0  0  2  0  0  0  0  0  0  0  0  0
   18.9134   27.5476   33.9713 O   0  0  0  0  0  0  0  0  0  0  0  0
   20.9290   29.1982   36.9384 C   0  0  2  0  0  0  0  0  0  0  0  0
   20.7081   30.0758   35.8362 O   0  0  0  0  0  0  0  0  0  0  0  0
   23.1184   32.7146   35.8104 C   0  0  0  0  0  0  0  0  0  0  0  0
   24.1252   31.6335   35.9365 O   0  0  0  0  0  0  0  0  0  0  0  0
   19.0256   25.4056   32.7789 C   0  0  2  0  0  0  0  0  0  0  0  0
   18.2922   25.7711   31.6047 O   0  0  0  0  0  0  0  0  0  0  0  0
   22.4452   29.2028   37.2538 C   0  0  1  0  0  0  0  0  0  0  0  0
   22.8153   30.5539   37.6441 O   0  0  0  0  0  0  0  0  0  0  0  0
   18.9449   23.9022   32.9266 C   0  0  0  0  0  0  0  0  0  0  0  0
   22.3081   34.9386   36.6914 C   0  0  0  0  0  0  0  0  0  0  0  0
   22.8710   33.9337   40.5044 C   0  0  0  0  0  0  0  0  0  0  0  0
  1  2  1  1  0  0  0
  1  6  1  0  0  0  0
  1 23  1  0  0  0  0
  3  4  1  6  0  0  0
  3  8  1  0  0  0  0
  3 30  1  0  0  0  0
  5  9  1  0  0  0  0
  5 27  1  0  0  0  0
  5 31  1  1  0  0  0
  6  7  1  1  0  0  0
  6 11  1  0  0  0  0
  8 13  1  0  0  0  0
  9 10  1  1  0  0  0
  9 15  1  0  0  0  0
 11 12  1  6  0  0  0
 11 17  1  0  0  0  0
 13 14  1  6  0  0  0
 13 19  1  0  0  0  0
 15 16  1  1  0  0  0
 15 20  1  0  0  0  0
 16 34  1  0  0  0  0
 17 18  1  1  0  0  0
 17 22  1  0  0  0  0
 19  2  1  1  0  0  0
 19 24  1  0  0  0  0
 20 21  1  6  0  0  0
 20 26  1  0  0  0  0
 20 33  1  0  0  0  0
 22 23  1  6  0  0  0
 22 28  1  0  0  0  0
 24 25  1  6  0  0  0
 24 30  1  0  0  0  0
 26 27  1  0  0  0  0
 28 29  1  6  0  0  0
 28 32  1  0  0  0  0
 30 31  1  1  0  0  0
M  END
>  <CHROM.1>
-173.18084878,-166.29956921,-93.28428019,45.02816860,98.11812794,-154.08401074
20.77294797,29.21005447,36.35760215,2.41460313,0.58184761,3.09651507

>  <Name>
ligand

>  <RI>
0

>  <Rbt.Current_Directory>
/home/itssahil/PROJECTS/Mol_Feturizer/New_Systems/rnas/4p3s

>  <Rbt.Executable>
rbdock ($Id: //depot/dev/client3/rdock/2013.1/src/exe/rbdock.cxx#4 $)

>  <Rbt.Library>
libRbt.so (2013.1, Build901 2013/11/27)

>  <Rbt.Parameter_File>
/export/apps/rDock/src/rDock_2013.1_src/data/scripts/dock_solv.prm

>  <Rbt.Receptor>
prm/pocket_docking_8.prm

>  <SCORE>
-19.0733

>  <SCORE.INTER>
-16.5417

>  <SCORE.INTER.CONST>
1

>  <SCORE.INTER.POLAR>
0

>  <SCORE.INTER.ROT>
6

>  <SCORE.INTER.SOLV>
21.3931

>  <SCORE.INTER.VDW>
-25.7588

>  <SCORE.INTER.norm>
-0.48652

>  <SCORE.INTRA>
-2.53158

>  <SCORE.INTRA.DIHEDRAL>
-5.32159

>  <SCORE.INTRA.DIHEDRAL.0>
15.8194

>  <SCORE.INTRA.POLAR>
0

>  <SCORE.INTRA.POLAR.0>
0

>  <SCORE.INTRA.REPUL>
0

>  <SCORE.INTRA.REPUL.0>
0

>  <SCORE.INTRA.SOLV>
-0.191599

>  <SCORE.INTRA.SOLV.lig_0>
-71.9159

>  <SCORE.INTRA.VDW>
0.22501

>  <SCORE.INTRA.VDW.0>
-3.53918

>  <SCORE.INTRA.norm>
-0.0744584

>  <SCORE.RESTR>
0

>  <SCORE.RESTR.CAVITY>
0

>  <SCORE.RESTR.norm>
0

>  <SCORE.SYSTEM>
0

>  <SCORE.SYSTEM.CONST>
0

>  <SCORE.SYSTEM.DIHEDRAL>
0

>  <SCORE.SYSTEM.SOLV>
0

>  <SCORE.SYSTEM.norm>
0

>  <SCORE.heavy>
34

>  <SCORE.norm>
-0.560978

>  <RMSD>
0.675

$$$$
ligand
 OpenBabel01301917533D
libRbt.so/2013.1/901 2013/11/27
 34 36  0  0  0  0  0  0  0  0999 V2000
   18.3454   28.4002   35.0750 C   0  0  2  0  0  0  0  0  0  0  0  0
   18.8795   27.8359   36.2768 O   0  0  0  0  0  0  0  0  0  0  0  0
   22.5837   28.2164   38.4067 C   0  0  2  0  0  0  0  0  0  0  0  0
   24.0117   28.1639   38.7483 N   0  0  0  0  0  0  0  0  0  0  0  0
   24.0843   31.0518   37.2918 C   0  0  2  0  0  0  0  0  0  0  0  0
   16.7740   28.3448   35.1663 C   0  0  2  0  0  0  0  0  0  0  0  0
   16.2899   29.0891   36.3400 N   0  0  0  0  0  0  0  0  0  0  0  0
   22.1428   26.7730   37.9693 C   0  0  0  0  0  0  0  0  0  0  0  0
   24.4313   32.1369   38.3860 C   0  0  2  0  0  0  0  0  0  0  0  0
   24.4699   31.5438   39.6726 O   0  0  0  0  0  0  0  0  0  0  0  0
   16.2906   26.8647   35.2341 C   0  0  1  0  0  0  0  0  0  0  0  0
   14.8546   26.8093   35.3178 O   0  0  0  0  0  0  0  0  0  0  0  0
   20.6132   26.8260   37.6233 C   0  0  2  0  0  0  0  0  0  0  0  0
   20.1250   25.4851   37.1921 N   0  0  0  0  0  0  0  0  0  0  0  0
   23.3250   33.2575   38.3343 C   0  0  1  0  0  0  0  0  0  0  0  0
   23.5721   34.2888   39.3620 N   0  0  0  0  0  0  0  0  0  0  0  0
   16.8179   26.1217   33.9843 C   0  0  2  0  0  0  0  0  0  0  0  0
   16.3744   24.7615   34.0209 O   0  0  0  0  0  0  0  0  0  0  0  0
   20.3375   27.8518   36.4826 C   0  0  2  0  0  0  0  0  0  0  0  0
   23.3174   33.8993   36.9108 C   0  0  1  0  0  0  0  0  0  0  0  0
   24.5876   34.5005   36.6816 O   0  0  0  0  0  0  0  0  0  0  0  0
   18.4042   26.2183   33.9632 C   0  0  2  0  0  0  0  0  0  0  0  0
   18.8422   27.6316   33.9361 O   0  0  0  0  0  0  0  0  0  0  0  0
   20.8462   29.2516   36.9222 C   0  0  2  0  0  0  0  0  0  0  0  0
   20.6110   30.1629   35.8507 O   0  0  0  0  0  0  0  0  0  0  0  0
   23.0592   32.7786   35.8530 C   0  0  0  0  0  0  0  0  0  0  0  0
   24.0624   31.6924   35.9622 O   0  0  0  0  0  0  0  0  0  0  0  0
   19.0322   25.5005   32.7341 C   0  0  2  0  0  0  0  0  0  0  0  0
   18.2712   25.8171   31.5633 O   0  0  0  0  0  0  0  0  0  0  0  0
   22.3665   29.2459   37.2171 C   0  0  1  0  0  0  0  0  0  0  0  0
   22.7428   30.5842   37.6439 O   0  0  0  0  0  0  0  0  0  0  0  0
   19.0361   23.9959   32.8916 C   0  0  0  0  0  0  0  0  0  0  0  0
   22.2519   34.9877   36.7733 C   0  0  0  0  0  0  0  0  0  0  0  0
   22.7459   33.9443   40.5450 C   0  0  0  0  0  0  0  0  0  0  0  0
  1  2  1  1  0  0  0
  1  6  1  0  0  0  0
  1 23  1  0  0  0  0
  3  4  1  6  0  0  0
  3  8  1  0  0  0  0
  3 30  1  0  0  0  0
  5  9  1  0  0  0  0
  5 27  1  0  0  0  0
  5 31  1  1  0  0  0
  6  7  1  1  0  0  0
  6 11  1  0  0  0  0
  8 13  1  0  0  0  0
  9 10  1  1  0  0  0
  9 15  1  0  0  0  0
 11 12  1  6  0  0  0
 11 17  1  0  0  0  0
 13 14  1  6  0  0  0
 13 19  1  0  0  0  0
 15 16  1  1  0  0  0
 15 20  1  0  0  0  0
 16 34  1  0  0  0  0
 17 18  1  1  0  0  0
 17 22  1  0  0  0  0
 19  2  1  1  0  0  0
 19 24  1  0  0  0  0
 20 21  1  6  0  0  0
 20 26  1  0  0  0  0
 20 33  1  0  0  0  0
 22 23  1  6  0  0  0
 22 28  1  0  0  0  0
 24 25  1  6  0  0  0
 24 30  1  0  0  0  0
 26 27  1  0  0  0  0
 28 29  1  6  0  0  0
 28 32  1  0  0  0  0
 30 31  1  1  0  0  0
M  END
>  <CHROM.1>
-175.90698506,-163.77597083,-95.98606557,43.39223832,97.21034951,-154.56861678
20.71144783,29.24442489,36.33986178,2.38783210,0.55304083,-3.13418149

>  <Name>
ligand

>  <RI>
0

>  <Rbt.Current_Directory>
/home/itssahil/PROJECTS/Mol_Feturizer/New_Systems/rnas/4p3s

>  <Rbt.Executable>
rbdock ($Id: //depot/dev/client3/rdock/2013.1/src/exe/rbdock.cxx#4 $)

>  <Rbt.Library>
libRbt.so (2013.1, Build901 2013/11/27)

>  <Rbt.Parameter_File>
/export/apps/rDock/src/rDock_2013.1_src/data/scripts/dock_solv.prm

>  <Rbt.Receptor>
prm/pocket_docking_6.prm

>  <SCORE>
-18.8754

>  <SCORE.INTER>
-16.3233

>  <SCORE.INTER.CONST>
1

>  <SCORE.INTER.POLAR>
0

>  <SCORE.INTER.ROT>
6

>  <SCORE.INTER.SOLV>
21.3468

>  <SCORE.INTER.VDW>
-25.5978

>  <SCORE.INTER.norm>
-0.480098

>  <SCORE.INTRA>
-2.55203

>  <SCORE.INTRA.DIHEDRAL>
-5.12455

>  <SCORE.INTRA.DIHEDRAL.0>
15.8194

>  <SCORE.INTRA.POLAR>
0

>  <SCORE.INTRA.POLAR.0>
0

>  <SCORE.INTRA.REPUL>
0

>  <SCORE.INTRA.REPUL.0>
0

>  <SCORE.INTRA.SOLV>
-0.0294861

>  <SCORE.INTRA.SOLV.lig_0>
-71.9159

>  <SCORE.INTRA.VDW>
0.0249866

>  <SCORE.INTRA.VDW.0>
-3.53918

>  <SCORE.INTRA.norm>
-0.0750597

>  <SCORE.RESTR>
0

>  <SCORE.RESTR.CAVITY>
0

>  <SCORE.RESTR.norm>
0

>  <SCORE.SYSTEM>
0

>  <SCORE.SYSTEM.CONST>
0

>  <SCORE.SYSTEM.DIHEDRAL>
0

>  <SCORE.SYSTEM.SOLV>
0

>  <SCORE.SYSTEM.norm>
0

>  <SCORE.heavy>
34

>  <SCORE.norm>
-0.555158

>  <RMSD>
0.680

$$$$
ligand
 OpenBabel01301917533D
libRbt.so/2013.1/901 2013/11/27
 34 36  0  0  0  0  0  0  0  0999 V2000
   18.2823   28.3401   35.0343 C   0  0  2  0  0  0  0  0  0  0  0  0
   18.8260   27.7218   36.2048 O   0  0  0  0  0  0  0  0  0  0  0  0
   22.5255   28.1680   38.3301 C   0  0  2  0  0  0  0  0  0  0  0  0
   23.9534   28.1308   38.6742 N   0  0  0  0  0  0  0  0  0  0  0  0
   24.0346   30.9631   37.2193 C   0  0  2  0  0  0  0  0  0  0  0  0
   16.7586   28.6359   35.3017 C   0  0  2  0  0  0  0  0  0  0  0  0
   16.5919   29.5160   36.4695 N   0  0  0  0  0  0  0  0  0  0  0  0
   22.0933   26.7133   37.9226 C   0  0  0  0  0  0  0  0  0  0  0  0
   24.3680   32.0218   38.3434 C   0  0  2  0  0  0  0  0  0  0  0  0
   24.3498   31.4065   39.6200 O   0  0  0  0  0  0  0  0  0  0  0  0
   15.9818   27.3027   35.5208 C   0  0  1  0  0  0  0  0  0  0  0  0
   14.5884   27.5685   35.7658 O   0  0  0  0  0  0  0  0  0  0  0  0
   20.5638   26.7503   37.5740 C   0  0  2  0  0  0  0  0  0  0  0  0
   20.0837   25.3978   37.1705 N   0  0  0  0  0  0  0  0  0  0  0  0
   23.2890   33.1677   38.2740 C   0  0  1  0  0  0  0  0  0  0  0  0
   23.5236   34.1758   39.3274 N   0  0  0  0  0  0  0  0  0  0  0  0
   16.1813   26.4112   34.2728 C   0  0  2  0  0  0  0  0  0  0  0  0
   15.4650   25.1849   34.4485 O   0  0  0  0  0  0  0  0  0  0  0  0
   20.2836   27.7503   36.4117 C   0  0  2  0  0  0  0  0  0  0  0  0
   23.3439   33.8332   36.8625 C   0  0  1  0  0  0  0  0  0  0  0  0
   24.6341   34.4093   36.6867 O   0  0  0  0  0  0  0  0  0  0  0  0
   17.7369   26.1552   34.0706 C   0  0  2  0  0  0  0  0  0  0  0  0
   18.4604   27.4350   33.9013 O   0  0  0  0  0  0  0  0  0  0  0  0
   20.7838   29.1619   36.8223 C   0  0  2  0  0  0  0  0  0  0  0  0
   20.5448   30.0491   35.7317 O   0  0  0  0  0  0  0  0  0  0  0  0
   23.0973   32.7364   35.7773 C   0  0  0  0  0  0  0  0  0  0  0  0
   24.0720   31.6262   35.9011 O   0  0  0  0  0  0  0  0  0  0  0  0
   18.0419   25.2670   32.8302 C   0  0  2  0  0  0  0  0  0  0  0  0
   17.2701   24.0637   32.9104 O   0  0  0  0  0  0  0  0  0  0  0  0
   22.3038   29.1710   37.1189 C   0  0  1  0  0  0  0  0  0  0  0  0
   22.6720   30.5201   37.5179 O   0  0  0  0  0  0  0  0  0  0  0  0
   19.5015   24.8772   32.7517 C   0  0  0  0  0  0  0  0  0  0  0  0
   22.3078   34.9475   36.7083 C   0  0  0  0  0  0  0  0  0  0  0  0
   22.6693   33.8156   40.4855 C   0  0  0  0  0  0  0  0  0  0  0  0
  1  2  1  1  0  0  0
  1  6  1  0  0  0  0
  1 23  1  0  0  0  0
  3  4  1  6  0  0  0
  3  8  1  0  0  0  0
  3 30  1  0  0  0  0
  5  9  1  0  0  0  0
  5 27  1  0  0  0  0
  5 31  1  1  0  0  0
  6  7  1  1  0  0  0
  6 11  1  0  0  0  0
  8 13  1  0  0  0  0
  9 10  1  1  0  0  0
  9 15  1  0  0  0  0
 11 12  1  6  0  0  0
 11 17  1  0  0  0  0
 13 14  1  6  0  0  0
 13 19  1  0  0  0  0
 15 16  1  1  0  0  0
 15 20  1  0  0  0  0
 16 34  1  0  0  0  0
 17 18  1  1  0  0  0
 17 22  1  0  0  0  0
 19  2  1  1  0  0  0
 19 24  1  0  0  0  0
 20 21  1  6  0  0  0
 20 26  1  0  0  0  0
 20 33  1  0  0  0  0
 22 23  1  6  0  0  0
 22 28  1  0  0  0  0
 24 25  1  6  0  0  0
 24 30  1  0  0  0  0
 26 27  1  0  0  0  0
 28 29  1  1  0  0  0
 28 32  1  0  0  0  0
 30 31  1  1  0  0  0
M  END
>  <CHROM.1>
-159.62232366,-168.05349183,-94.93372059,-52.84405753,94.09563270,-151.34450391
20.55303816,29.22216896,36.39334863,2.36342004,0.40169038,-3.03183966

>  <Name>
ligand

>  <RI>
0

>  <Rbt.Current_Directory>
/home/itssahil/PROJECTS/Mol_Feturizer/New_Systems/rnas/4p3s

>  <Rbt.Executable>
rbdock ($Id: //depot/dev/client3/rdock/2013.1/src/exe/rbdock.cxx#4 $)

>  <Rbt.Library>
libRbt.so (2013.1, Build901 2013/11/27)

>  <Rbt.Parameter_File>
/export/apps/rDock/src/rDock_2013.1_src/data/scripts/dock_solv.prm

>  <Rbt.Receptor>
prm/pocket_docking_2.prm

>  <SCORE>
-18.7775

>  <SCORE.INTER>
-16.7566

>  <SCORE.INTER.CONST>
1

>  <SCORE.INTER.POLAR>
0

>  <SCORE.INTER.ROT>
6

>  <SCORE.INTER.SOLV>
19.9214

>  <SCORE.INTER.VDW>
-25.4115

>  <SCORE.INTER.norm>
-0.49284

>  <SCORE.INTRA>
-2.02091

>  <SCORE.INTRA.DIHEDRAL>
-4.60277

>  <SCORE.INTRA.DIHEDRAL.0>
15.8194

>  <SCORE.INTRA.POLAR>
0

>  <SCORE.INTRA.POLAR.0>
0

>  <SCORE.INTRA.REPUL>
0

>  <SCORE.INTRA.REPUL.0>
0

>  <SCORE.INTRA.SOLV>
0.278199

>  <SCORE.INTRA.SOLV.lig_0>
-71.9159

>  <SCORE.INTRA.VDW>
0.141376

>  <SCORE.INTRA.VDW.0>
-3.53918

>  <SCORE.INTRA.norm>
-0.0594385

>  <SCORE.RESTR>
0

>  <SCORE.RESTR.CAVITY>
0

>  <SCORE.RESTR.norm>
0

>  <SCORE.SYSTEM>
0

>  <SCORE.SYSTEM.CONST>
0

>  <SCORE.SYSTEM.DIHEDRAL>
0

>  <SCORE.SYSTEM.SOLV>
0

>  <SCORE.SYSTEM.norm>
0

>  <SCORE.heavy>
34

>  <SCORE.norm>
-0.552279

>  <RMSD>
0.685

$$$$
ligand
 OpenBabel01301917533D
libRbt.so/2013.1/901 2013/11/27
 34 36  0  0  0  0  0  0  0  0999 V2000
   18.4557   28.3412   35.1112 C   0  0  2  0  0  0  0  0  0  0  0  0
   18.9795   27.7599   36.3095 O   0  0  0  0  0  0  0  0  0  0  0  0
   22.6533   28.2056   38.4790 C   0  0  2  0  0  0  0  0  0  0  0  0
   24.0767   28.1660   38.8411 N   0  0  0  0  0  0  0  0  0  0  0  0
   24.1646   31.0128   37.3201 C   0  0  2  0  0  0  0  0  0  0  0  0
   16.8842   28.3441   35.2169 C   0  0  2  0  0  0  0  0  0  0  0  0
   16.4386   29.1081   36.3933 N   0  0  0  0  0  0  0  0  0  0  0  0
   22.2222   26.7502   38.0727 C   0  0  0  0  0  0  0  0  0  0  0  0
   24.4937   32.1196   38.3981 C   0  0  2  0  0  0  0  0  0  0  0  0
   24.5092   31.5526   39.6968 O   0  0  0  0  0  0  0  0  0  0  0  0
   16.3471   26.8830   35.2925 C   0  0  1  0  0  0  0  0  0  0  0  0
   14.9108   26.8811   35.3894 O   0  0  0  0  0  0  0  0  0  0  0  0
   20.6973   26.7899   37.7047 C   0  0  2  0  0  0  0  0  0  0  0  0
   20.2185   25.4369   37.3014 N   0  0  0  0  0  0  0  0  0  0  0  0
   23.3898   33.2399   38.3044 C   0  0  1  0  0  0  0  0  0  0  0  0
   23.6202   34.2915   39.3153 N   0  0  0  0  0  0  0  0  0  0  0  0
   16.8351   26.1186   34.0397 C   0  0  2  0  0  0  0  0  0  0  0  0
   16.3419   24.7759   34.0834 O   0  0  0  0  0  0  0  0  0  0  0  0
   20.4345   27.7853   36.5345 C   0  0  2  0  0  0  0  0  0  0  0  0
   23.4078   33.8527   36.8683 C   0  0  1  0  0  0  0  0  0  0  0  0
   24.6826   34.4481   36.6493 O   0  0  0  0  0  0  0  0  0  0  0  0
   18.4236   26.1565   34.0040 C   0  0  2  0  0  0  0  0  0  0  0  0
   18.9133   27.5525   33.9697 O   0  0  0  0  0  0  0  0  0  0  0  0
   20.9335   29.1974   36.9450 C   0  0  2  0  0  0  0  0  0  0  0  0
   20.7106   30.0803   35.8475 O   0  0  0  0  0  0  0  0  0  0  0  0
   23.1668   32.7111   35.8291 C   0  0  0  0  0  0  0  0  0  0  0  0
   24.1667   31.6265   35.9777 O   0  0  0  0  0  0  0  0  0  0  0  0
   19.0133   25.4135   32.7709 C   0  0  2  0  0  0  0  0  0  0  0  0
   18.2303   25.7253   31.6134 O   0  0  0  0  0  0  0  0  0  0  0  0
   22.4496   29.2038   37.2605 C   0  0  1  0  0  0  0  0  0  0  0  0
   22.8166   30.5536   37.6580 O   0  0  0  0  0  0  0  0  0  0  0  0
   18.9999   23.9113   32.9488 C   0  0  0  0  0  0  0  0  0  0  0  0
   22.3462   34.9391   36.6903 C   0  0  0  0  0  0  0  0  0  0  0  0
   22.9018   33.8872   40.5487 C   0  0  0  0  0  0  0  0  0  0  0  0
  1  2  1  1  0  0  0
  1  6  1  0  0  0  0
  1 23  1  0  0  0  0
  3  4  1  6  0  0  0
  3  8  1  0  0  0  0
  3 30  1  0  0  0  0
  5  9  1  0  0  0  0
  5 27  1  0  0  0  0
  5 31  1  1  0  0  0
  6  7  1  1  0  0  0
  6 11  1  0  0  0  0
  8 13  1  0  0  0  0
  9 10  1  1  0  0  0
  9 15  1  0  0  0  0
 11 12  1  6  0  0  0
 11 17  1  0  0  0  0
 13 14  1  6  0  0  0
 13 19  1  0  0  0  0
 15 16  1  1  0  0  0
 15 20  1  0  0  0  0
 16 34  1  0  0  0  0
 17 18  1  1  0  0  0
 17 22  1  0  0  0  0
 19  2  1  1  0  0  0
 19 24  1  0  0  0  0
 20 21  1  6  0  0  0
 20 26  1  0  0  0  0
 20 33  1  0  0  0  0
 22 23  1  6  0  0  0
 22 28  1  0  0  0  0
 24 25  1  6  0  0  0
 24 30  1  0  0  0  0
 26 27  1  0  0  0  0
 28 29  1  6  0  0  0
 28 32  1  0  0  0  0
 30 31  1  1  0  0  0
M  END
>  <CHROM.1>
-172.74668989,-166.31485563,-89.31613575,41.73149880,96.81757010,-154.12403653
20.77965010,29.20848830,36.37047077,2.41367100,0.57882047,3.10356715

>  <Name>
ligand

>  <RI>
0

>  <Rbt.Current_Directory>
/home/itssahil/PROJECTS/Mol_Feturizer/New_Systems/rnas/4p3s

>  <Rbt.Executable>
rbdock ($Id: //depot/dev/client3/rdock/2013.1/src/exe/rbdock.cxx#4 $)

>  <Rbt.Library>
libRbt.so (2013.1, Build901 2013/11/27)

>  <Rbt.Parameter_File>
/export/apps/rDock/src/rDock_2013.1_src/data/scripts/dock_solv.prm

>  <Rbt.Receptor>
prm/pocket_docking_3.prm

>  <SCORE>
-19.1155

>  <SCORE.INTER>
-16.7349

>  <SCORE.INTER.CONST>
1

>  <SCORE.INTER.POLAR>
0

>  <SCORE.INTER.ROT>
6

>  <SCORE.INTER.SOLV>
21.3374

>  <SCORE.INTER.VDW>
-25.8691

>  <SCORE.INTER.norm>
-0.492204

>  <SCORE.INTRA>
-2.38057

>  <SCORE.INTRA.DIHEDRAL>
-5.2975

>  <SCORE.INTRA.DIHEDRAL.0>
15.8194

>  <SCORE.INTRA.POLAR>
0

>  <SCORE.INTRA.POLAR.0>
0

>  <SCORE.INTRA.REPUL>
0

>  <SCORE.INTRA.REPUL.0>
0

>  <SCORE.INTRA.SOLV>
-0.151197

>  <SCORE.INTRA.SOLV.lig_0>
-71.9159

>  <SCORE.INTRA.VDW>
0.343774

>  <SCORE.INTRA.VDW.0>
-3.53918

>  <SCORE.INTRA.norm>
-0.0700169

>  <SCORE.RESTR>
0

>  <SCORE.RESTR.CAVITY>
0

>  <SCORE.RESTR.norm>
0

>  <SCORE.SYSTEM>
0

>  <SCORE.SYSTEM.CONST>
0

>  <SCORE.SYSTEM.DIHEDRAL>
0

>  <SCORE.SYSTEM.SOLV>
0

>  <SCORE.SYSTEM.norm>
0

>  <SCORE.heavy>
34

>  <SCORE.norm>
-0.562221

>  <RMSD>
0.685

$$$$
ligand
 OpenBabel01301917533D
libRbt.so/2013.1/901 2013/11/27
 34 36  0  0  0  0  0  0  0  0999 V2000
   18.3274   28.3478   34.9737 C   0  0  2  0  0  0  0  0  0  0  0  0
   18.8405   27.8756   36.2235 O   0  0  0  0  0  0  0  0  0  0  0  0
   22.5441   28.1584   38.3695 C   0  0  2  0  0  0  0  0  0  0  0  0
   23.9698   28.0749   38.7146 N   0  0  0  0  0  0  0  0  0  0  0  0
   24.1071   30.9726   37.3178 C   0  0  2  0  0  0  0  0  0  0  0  0
   16.7884   28.6303   35.1535 C   0  0  2  0  0  0  0  0  0  0  0  0
   16.5578   29.6278   36.2107 N   0  0  0  0  0  0  0  0  0  0  0  0
   22.0783   26.7296   37.9105 C   0  0  0  0  0  0  0  0  0  0  0  0
   24.4487   32.0588   38.4127 C   0  0  2  0  0  0  0  0  0  0  0  0
   24.4450   31.4743   39.7038 O   0  0  0  0  0  0  0  0  0  0  0  0
   16.0343   27.3086   35.4907 C   0  0  1  0  0  0  0  0  0  0  0  0
   14.6270   27.5623   35.6561 O   0  0  0  0  0  0  0  0  0  0  0  0
   20.5510   26.8154   37.5607 C   0  0  2  0  0  0  0  0  0  0  0  0
   20.0398   25.4898   37.1093 N   0  0  0  0  0  0  0  0  0  0  0  0
   23.3658   33.1999   38.3267 C   0  0  1  0  0  0  0  0  0  0  0  0
   23.6080   34.2336   39.3532 N   0  0  0  0  0  0  0  0  0  0  0  0
   16.3009   26.2919   34.3560 C   0  0  2  0  0  0  0  0  0  0  0  0
   15.6064   25.0734   34.6405 O   0  0  0  0  0  0  0  0  0  0  0  0
   20.2978   27.8619   36.4338 C   0  0  2  0  0  0  0  0  0  0  0  0
   23.4046   33.8315   36.8992 C   0  0  1  0  0  0  0  0  0  0  0  0
   24.6913   34.4066   36.6966 O   0  0  0  0  0  0  0  0  0  0  0  0
   17.8683   26.0569   34.2378 C   0  0  2  0  0  0  0  0  0  0  0  0
   18.5685   27.3295   33.9541 O   0  0  0  0  0  0  0  0  0  0  0  0
   20.8305   29.2459   36.8945 C   0  0  2  0  0  0  0  0  0  0  0  0
   20.6156   30.1762   35.8353 O   0  0  0  0  0  0  0  0  0  0  0  0
   23.1503   32.7083   35.8431 C   0  0  0  0  0  0  0  0  0  0  0  0
   24.1294   31.6040   35.9837 O   0  0  0  0  0  0  0  0  0  0  0  0
   18.2400   25.0471   33.1142 C   0  0  2  0  0  0  0  0  0  0  0  0
   17.5279   23.8230   33.3256 O   0  0  0  0  0  0  0  0  0  0  0  0
   22.3495   29.2082   37.1938 C   0  0  1  0  0  0  0  0  0  0  0  0
   22.7488   30.5333   37.6405 O   0  0  0  0  0  0  0  0  0  0  0  0
   19.7185   24.7269   33.0999 C   0  0  0  0  0  0  0  0  0  0  0  0
   22.3639   34.9390   36.7287 C   0  0  0  0  0  0  0  0  0  0  0  0
   22.7976   33.8766   40.5434 C   0  0  0  0  0  0  0  0  0  0  0  0
  1  2  1  1  0  0  0
  1  6  1  0  0  0  0
  1 23  1  0  0  0  0
  3  4  1  6  0  0  0
  3  8  1  0  0  0  0
  3 30  1  0  0  0  0
  5  9  1  0  0  0  0
  5 27  1  0  0  0  0
  5 31  1  1  0  0  0
  6  7  1  1  0  0  0
  6 11  1  0  0  0  0
  8 13  1  0  0  0  0
  9 10  1  1  0  0  0
  9 15  1  0  0  0  0
 11 12  1  6  0  0  0
 11 17  1  0  0  0  0
 13 14  1  6  0  0  0
 13 19  1  0  0  0  0
 15 16  1  1  0  0  0
 15 20  1  0  0  0  0
 16 34  1  0  0  0  0
 17 18  1  1  0  0  0
 17 22  1  0  0  0  0
 19  2  1  1  0  0  0
 19 24  1  0  0  0  0
 20 21  1  6  0  0  0
 20 26  1  0  0  0  0
 20 33  1  0  0  0  0
 22 23  1  6  0  0  0
 22 28  1  0  0  0  0
 24 25  1  6  0  0  0
 24 30  1  0  0  0  0
 26 27  1  0  0  0  0
 28 29  1  1  0  0  0
 28 32  1  0  0  0  0
 30 31  1  1  0  0  0
M  END
>  <CHROM.1>
-164.62226603,-157.80242562,-93.25862893,-54.82054530,96.24910014,-155.59487486
20.62389920,29.21882269,36.45303616,2.35134436,0.39341471,-3.03223732

>  <Name>
ligand

>  <RI>
0

>  <Rbt.Current_Directory>
/home/itssahil/PROJECTS/Mol_Feturizer/New_Systems/rnas/4p3s

>  <Rbt.Executable>
rbdock ($Id: //depot/dev/client3/rdock/2013.1/src/exe/rbdock.cxx#4 $)

>  <Rbt.Library>
libRbt.so (2013.1, Build901 2013/11/27)

>  <Rbt.Parameter_File>
/export/apps/rDock/src/rDock_2013.1_src/data/scripts/dock_solv.prm

>  <Rbt.Receptor>
prm/pocket_docking_2.prm

>  <SCORE>
-18.8785

>  <SCORE.INTER>
-16.9115

>  <SCORE.INTER.CONST>
1

>  <SCORE.INTER.POLAR>
0

>  <SCORE.INTER.ROT>
6

>  <SCORE.INTER.SOLV>
19.275

>  <SCORE.INTER.VDW>
-25.2993

>  <SCORE.INTER.norm>
-0.497397

>  <SCORE.INTRA>
-1.96704

>  <SCORE.INTRA.DIHEDRAL>
-4.41286

>  <SCORE.INTRA.DIHEDRAL.0>
15.8194

>  <SCORE.INTRA.POLAR>
0

>  <SCORE.INTRA.POLAR.0>
0

>  <SCORE.INTRA.REPUL>
0

>  <SCORE.INTRA.REPUL.0>
0

>  <SCORE.INTRA.SOLV>
0.715926

>  <SCORE.INTRA.SOLV.lig_0>
-71.9159

>  <SCORE.INTRA.VDW>
-0.118573

>  <SCORE.INTRA.VDW.0>
-3.53918

>  <SCORE.INTRA.norm>
-0.057854

>  <SCORE.RESTR>
0

>  <SCORE.RESTR.CAVITY>
0

>  <SCORE.RESTR.norm>
0

>  <SCORE.SYSTEM>
0

>  <SCORE.SYSTEM.CONST>
0

>  <SCORE.SYSTEM.DIHEDRAL>
0

>  <SCORE.SYSTEM.SOLV>
0

>  <SCORE.SYSTEM.norm>
0

>  <SCORE.heavy>
34

>  <SCORE.norm>
-0.555251

>  <RMSD>
0.688

$$$$
ligand
 OpenBabel01301917533D
libRbt.so/2013.1/901 2013/11/27
 34 36  0  0  0  0  0  0  0  0999 V2000
   18.7050   28.0159   34.9020 C   0  0  2  0  0  0  0  0  0  0  0  0
   19.1244   27.5917   36.2029 O   0  0  0  0  0  0  0  0  0  0  0  0
   22.6426   28.0819   38.6080 C   0  0  2  0  0  0  0  0  0  0  0  0
   24.0366   28.0427   39.0703 N   0  0  0  0  0  0  0  0  0  0  0  0
   24.2282   30.8688   37.3623 C   0  0  2  0  0  0  0  0  0  0  0  0
   17.1343   28.1326   34.9097 C   0  0  2  0  0  0  0  0  0  0  0  0
   16.6843   29.0926   35.9305 N   0  0  0  0  0  0  0  0  0  0  0  0
   22.2244   26.6168   38.2234 C   0  0  0  0  0  0  0  0  0  0  0  0
   24.5424   32.0131   38.4049 C   0  0  2  0  0  0  0  0  0  0  0  0
   24.5716   31.4862   39.7202 O   0  0  0  0  0  0  0  0  0  0  0  0
   16.4920   26.7363   35.1677 C   0  0  1  0  0  0  0  0  0  0  0  0
   15.0561   26.8384   35.1757 O   0  0  0  0  0  0  0  0  0  0  0  0
   20.7295   26.6568   37.7482 C   0  0  2  0  0  0  0  0  0  0  0  0
   20.2648   25.2946   37.3597 N   0  0  0  0  0  0  0  0  0  0  0  0
   23.4196   33.1115   38.2815 C   0  0  1  0  0  0  0  0  0  0  0  0
   23.6356   34.1970   39.2591 N   0  0  0  0  0  0  0  0  0  0  0  0
   16.9881   25.7616   34.0741 C   0  0  2  0  0  0  0  0  0  0  0  0
   16.3996   24.4744   34.2858 O   0  0  0  0  0  0  0  0  0  0  0  0
   20.5603   27.6123   36.5284 C   0  0  2  0  0  0  0  0  0  0  0  0
   23.4225   33.6806   36.8274 C   0  0  1  0  0  0  0  0  0  0  0  0
   24.6864   34.2902   36.5856 O   0  0  0  0  0  0  0  0  0  0  0  0
   18.5751   25.6946   34.1305 C   0  0  2  0  0  0  0  0  0  0  0  0
   19.1635   27.0361   33.9199 O   0  0  0  0  0  0  0  0  0  0  0  0
   21.0453   29.0336   36.9234 C   0  0  2  0  0  0  0  0  0  0  0  0
   20.9096   29.8788   35.7828 O   0  0  0  0  0  0  0  0  0  0  0  0
   23.1972   32.5041   35.8242 C   0  0  0  0  0  0  0  0  0  0  0  0
   24.2156   31.4413   36.0018 O   0  0  0  0  0  0  0  0  0  0  0  0
   19.1731   24.7379   33.0593 C   0  0  2  0  0  0  0  0  0  0  0  0
   20.5996   24.7246   33.1824 O   0  0  0  0  0  0  0  0  0  0  0  0
   22.5358   29.0378   37.3442 C   0  0  1  0  0  0  0  0  0  0  0  0
   22.8893   30.3976   37.7191 O   0  0  0  0  0  0  0  0  0  0  0  0
   18.8334   25.1733   31.6509 C   0  0  0  0  0  0  0  0  0  0  0  0
   22.3422   34.7432   36.6206 C   0  0  0  0  0  0  0  0  0  0  0  0
   22.8863   33.8426   40.4895 C   0  0  0  0  0  0  0  0  0  0  0  0
  1  2  1  1  0  0  0
  1  6  1  0  0  0  0
  1 23  1  0  0  0  0
  3  4  1  6  0  0  0
  3  8  1  0  0  0  0
  3 30  1  0  0  0  0
  5  9  1  0  0  0  0
  5 27  1  0  0  0  0
  5 31  1  1  0  0  0
  6  7  1  1  0  0  0
  6 11  1  0  0  0  0
  8 13  1  0  0  0  0
  9 10  1  1  0  0  0
  9 15  1  0  0  0  0
 11 12  1  6  0  0  0
 11 17  1  0  0  0  0
 13 14  1  6  0  0  0
 13 19  1  0  0  0  0
 15 16  1  1  0  0  0
 15 20  1  0  0  0  0
 16 34  1  0  0  0  0
 17 18  1  1  0  0  0
 17 22  1  0  0  0  0
 19  2  1  1  0  0  0
 19 24  1  0  0  0  0
 20 21  1  6  0  0  0
 20 26  1  0  0  0  0
 20 33  1  0  0  0  0
 22 23  1  6  0  0  0
 22 28  1  0  0  0  0
 24 25  1  6  0  0  0
 24 30  1  0  0  0  0
 26 27  1  0  0  0  0
 28 29  1  6  0  0  0
 28 32  1  0  0  0  0
 30 31  1  1  0  0  0
M  END
>  <CHROM.1>
-170.29610327,-160.40692802,-91.39748038,-179.52374981,101.69079470,-155.13216732
20.93692082,29.03335800,36.37000411,2.37186405,0.56685264,3.13896034

>  <Name>
ligand

>  <RI>
0

>  <Rbt.Current_Directory>
/home/itssahil/PROJECTS/Mol_Feturizer/New_Systems/rnas/4p3s

>  <Rbt.Executable>
rbdock ($Id: //depot/dev/client3/rdock/2013.1/src/exe/rbdock.cxx#4 $)

>  <Rbt.Library>
libRbt.so (2013.1, Build901 2013/11/27)

>  <Rbt.Parameter_File>
/export/apps/rDock/src/rDock_2013.1_src/data/scripts/dock_solv.prm

>  <Rbt.Receptor>
prm/pocket_docking_3.prm

>  <SCORE>
-18.853

>  <SCORE.INTER>
-16.7695

>  <SCORE.INTER.CONST>
1

>  <SCORE.INTER.POLAR>
0

>  <SCORE.INTER.ROT>
6

>  <SCORE.INTER.SOLV>
22.3178

>  <SCORE.INTER.VDW>
-26.2189

>  <SCORE.INTER.norm>
-0.493219

>  <SCORE.INTRA>
-2.08355

>  <SCORE.INTRA.DIHEDRAL>
-4.68373

>  <SCORE.INTRA.DIHEDRAL.0>
15.8194

>  <SCORE.INTRA.POLAR>
0

>  <SCORE.INTRA.POLAR.0>
0

>  <SCORE.INTRA.REPUL>
0

>  <SCORE.INTRA.REPUL.0>
0

>  <SCORE.INTRA.SOLV>
-0.228493

>  <SCORE.INTRA.SOLV.lig_0>
-71.9159

>  <SCORE.INTRA.VDW>
0.372561

>  <SCORE.INTRA.VDW.0>
-3.53918

>  <SCORE.INTRA.norm>
-0.0612809

>  <SCORE.RESTR>
0

>  <SCORE.RESTR.CAVITY>
0

>  <SCORE.RESTR.norm>
0

>  <SCORE.SYSTEM>
0

>  <SCORE.SYSTEM.CONST>
0

>  <SCORE.SYSTEM.DIHEDRAL>
0

>  <SCORE.SYSTEM.SOLV>
0

>  <SCORE.SYSTEM.norm>
0

>  <SCORE.heavy>
34

>  <SCORE.norm>
-0.5545

>  <RMSD>
0.691

$$$$
ligand
 OpenBabel01301917533D
libRbt.so/2013.1/901 2013/11/27
 34 36  0  0  0  0  0  0  0  0999 V2000
   18.6302   27.9118   34.8183 C   0  0  2  0  0  0  0  0  0  0  0  0
   19.0678   27.5274   36.1256 O   0  0  0  0  0  0  0  0  0  0  0  0
   22.6182   28.0059   38.4852 C   0  0  2  0  0  0  0  0  0  0  0  0
   24.0195   27.9710   38.9253 N   0  0  0  0  0  0  0  0  0  0  0  0
   24.1851   30.8038   37.3311 C   0  0  2  0  0  0  0  0  0  0  0  0
   17.0592   28.0217   34.8424 C   0  0  2  0  0  0  0  0  0  0  0  0
   16.6173   29.0088   35.8405 N   0  0  0  0  0  0  0  0  0  0  0  0
   22.2071   26.5443   38.0804 C   0  0  0  0  0  0  0  0  0  0  0  0
   24.4861   31.9058   38.4222 C   0  0  2  0  0  0  0  0  0  0  0  0
   24.4726   31.3320   39.7180 O   0  0  0  0  0  0  0  0  0  0  0  0
   16.4269   26.6305   35.1487 C   0  0  1  0  0  0  0  0  0  0  0  0
   14.9907   26.7264   35.1718 O   0  0  0  0  0  0  0  0  0  0  0  0
   20.7047   26.5793   37.6289 C   0  0  2  0  0  0  0  0  0  0  0  0
   20.2460   25.2202   37.2228 N   0  0  0  0  0  0  0  0  0  0  0  0
   23.3818   33.0237   38.3085 C   0  0  1  0  0  0  0  0  0  0  0  0
   23.5856   34.0706   39.3300 N   0  0  0  0  0  0  0  0  0  0  0  0
   16.9141   25.6268   34.0776 C   0  0  2  0  0  0  0  0  0  0  0  0
   16.3345   24.3437   34.3339 O   0  0  0  0  0  0  0  0  0  0  0  0
   20.5083   27.5551   36.4295 C   0  0  2  0  0  0  0  0  0  0  0  0
   23.4318   33.6442   36.8764 C   0  0  1  0  0  0  0  0  0  0  0  0
   24.7097   34.2438   36.6904 O   0  0  0  0  0  0  0  0  0  0  0  0
   18.5019   25.5686   34.1160 C   0  0  2  0  0  0  0  0  0  0  0  0
   19.0812   26.9060   33.8593 O   0  0  0  0  0  0  0  0  0  0  0  0
   20.9869   28.9734   36.8428 C   0  0  2  0  0  0  0  0  0  0  0  0
   20.8262   29.8379   35.7200 O   0  0  0  0  0  0  0  0  0  0  0  0
   23.2181   32.5074   35.8259 C   0  0  0  0  0  0  0  0  0  0  0  0
   24.2171   31.4246   35.9923 O   0  0  0  0  0  0  0  0  0  0  0  0
   19.0912   24.5839   33.0656 C   0  0  2  0  0  0  0  0  0  0  0  0
   20.5129   24.5203   33.2240 O   0  0  0  0  0  0  0  0  0  0  0  0
   22.4835   28.9835   37.2408 C   0  0  1  0  0  0  0  0  0  0  0  0
   22.8308   30.3395   37.6350 O   0  0  0  0  0  0  0  0  0  0  0  0
   18.8020   25.0217   31.6467 C   0  0  0  0  0  0  0  0  0  0  0  0
   22.3718   34.7288   36.6792 C   0  0  0  0  0  0  0  0  0  0  0  0
   22.6694   33.7747   40.4586 C   0  0  0  0  0  0  0  0  0  0  0  0
  1  2  1  1  0  0  0
  1  6  1  0  0  0  0
  1 23  1  0  0  0  0
  3  4  1  6  0  0  0
  3  8  1  0  0  0  0
  3 30  1  0  0  0  0
  5  9  1  0  0  0  0
  5 27  1  0  0  0  0
  5 31  1  1  0  0  0
  6  7  1  1  0  0  0
  6 11  1  0  0  0  0
  8 13  1  0  0  0  0
  9 10  1  1  0  0  0
  9 15  1  0  0  0  0
 11 12  1  6  0  0  0
 11 17  1  0  0  0  0
 13 14  1  6  0  0  0
 13 19  1  0  0  0  0
 15 16  1  1  0  0  0
 15 20  1  0  0  0  0
 16 34  1  0  0  0  0
 17 18  1  1  0  0  0
 17 22  1  0  0  0  0
 19  2  1  1  0  0  0
 19 24  1  0  0  0  0
 20 21  1  6  0  0  0
 20 26  1  0  0  0  0
 20 33  1  0  0  0  0
 22 23  1  6  0  0  0
 22 28  1  0  0  0  0
 24 25  1  6  0  0  0
 24 30  1  0  0  0  0
 26 27  1  0  0  0  0
 28 29  1  6  0  0  0
 28 32  1  0  0  0  0
 30 31  1  1  0  0  0
M  END
>  <CHROM.1>
-170.70570899,-157.51730720,-98.36605510,-176.11343266,98.42875530,-153.18052806
20.88571856,28.94558534,36.33715353,2.33424976,0.51051701,-3.07904410

>  <Name>
ligand

>  <RI>
0

>  <Rbt.Current_Directory>
/home/itssahil/PROJECTS/Mol_Feturizer/New_Systems/rnas/4p3s

>  <Rbt.Executable>
rbdock ($Id: //depot/dev/client3/rdock/2013.1/src/exe/rbdock.cxx#4 $)

>  <Rbt.Library>
libRbt.so (2013.1, Build901 2013/11/27)

>  <Rbt.Parameter_File>
/export/apps/rDock/src/rDock_2013.1_src/data/scripts/dock_solv.prm

>  <Rbt.Receptor>
prm/pocket_docking_4.prm

>  <SCORE>
-18.8954

>  <SCORE.INTER>
-16.9197

>  <SCORE.INTER.CONST>
1

>  <SCORE.INTER.POLAR>
0

>  <SCORE.INTER.ROT>
6

>  <SCORE.INTER.SOLV>
22.304

>  <SCORE.INTER.VDW>
-26.3145

>  <SCORE.INTER.norm>
-0.497639

>  <SCORE.INTRA>
-1.97564

>  <SCORE.INTRA.DIHEDRAL>
-4.12925

>  <SCORE.INTRA.DIHEDRAL.0>
15.8194

>  <SCORE.INTRA.POLAR>
0

>  <SCORE.INTRA.POLAR.0>
0

>  <SCORE.INTRA.REPUL>
0

>  <SCORE.INTRA.REPUL.0>
0

>  <SCORE.INTRA.SOLV>
0.122482

>  <SCORE.INTRA.SOLV.lig_0>
-71.9159

>  <SCORE.INTRA.VDW>
0.0277442

>  <SCORE.INTRA.VDW.0>
-3.53918

>  <SCORE.INTRA.norm>
-0.058107

>  <SCORE.RESTR>
0

>  <SCORE.RESTR.CAVITY>
0

>  <SCORE.RESTR.norm>
0

>  <SCORE.SYSTEM>
0

>  <SCORE.SYSTEM.CONST>
0

>  <SCORE.SYSTEM.DIHEDRAL>
0

>  <SCORE.SYSTEM.SOLV>
0

>  <SCORE.SYSTEM.norm>
0

>  <SCORE.heavy>
34

>  <SCORE.norm>
-0.555746

>  <RMSD>
0.692

$$$$
ligand
 OpenBabel01301917533D
libRbt.so/2013.1/901 2013/11/27
 34 36  0  0  0  0  0  0  0  0999 V2000
   18.4294   28.3192   35.1372 C   0  0  2  0  0  0  0  0  0  0  0  0
   18.9447   27.7537   36.3467 O   0  0  0  0  0  0  0  0  0  0  0  0
   22.6202   28.1374   38.5251 C   0  0  2  0  0  0  0  0  0  0  0  0
   24.0429   28.0815   38.8874 N   0  0  0  0  0  0  0  0  0  0  0  0
   24.1469   30.9580   37.3969 C   0  0  2  0  0  0  0  0  0  0  0  0
   16.8581   28.3458   35.2416 C   0  0  2  0  0  0  0  0  0  0  0  0
   16.4226   29.1382   36.4029 N   0  0  0  0  0  0  0  0  0  0  0  0
   22.1785   26.6920   38.0954 C   0  0  0  0  0  0  0  0  0  0  0  0
   24.4749   32.0747   38.4649 C   0  0  2  0  0  0  0  0  0  0  0  0
   24.4956   31.5184   39.7683 O   0  0  0  0  0  0  0  0  0  0  0  0
   16.3008   26.8939   35.3447 C   0  0  1  0  0  0  0  0  0  0  0  0
   14.8646   26.9136   35.4406 O   0  0  0  0  0  0  0  0  0  0  0  0
   20.6542   26.7488   37.7272 C   0  0  2  0  0  0  0  0  0  0  0  0
   20.1657   25.4060   37.3020 N   0  0  0  0  0  0  0  0  0  0  0  0
   23.3669   33.1904   38.3649 C   0  0  1  0  0  0  0  0  0  0  0  0
   23.5962   34.2510   39.3665 N   0  0  0  0  0  0  0  0  0  0  0  0
   16.7788   26.0990   34.1071 C   0  0  2  0  0  0  0  0  0  0  0  0
   16.2671   24.7643   34.1761 O   0  0  0  0  0  0  0  0  0  0  0  0
   20.3996   27.7647   36.5729 C   0  0  2  0  0  0  0  0  0  0  0  0
   23.3792   33.7915   36.9238 C   0  0  1  0  0  0  0  0  0  0  0  0
   24.6514   34.3894   36.6967 O   0  0  0  0  0  0  0  0  0  0  0  0
   18.3677   26.1143   34.0718 C   0  0  2  0  0  0  0  0  0  0  0  0
   18.8766   27.5026   34.0112 O   0  0  0  0  0  0  0  0  0  0  0  0
   20.9088   29.1663   37.0063 C   0  0  2  0  0  0  0  0  0  0  0  0
   20.6932   30.0683   35.9229 O   0  0  0  0  0  0  0  0  0  0  0  0
   23.1396   32.6406   35.8945 C   0  0  0  0  0  0  0  0  0  0  0  0
   24.1435   31.5607   36.0495 O   0  0  0  0  0  0  0  0  0  0  0  0
   18.9477   25.3399   32.8535 C   0  0  2  0  0  0  0  0  0  0  0  0
   18.2631   25.7497   31.6646 O   0  0  0  0  0  0  0  0  0  0  0  0
   22.4247   29.1564   37.3227 C   0  0  1  0  0  0  0  0  0  0  0  0
   22.8014   30.4969   37.7420 O   0  0  0  0  0  0  0  0  0  0  0  0
   18.7771   23.8433   32.9941 C   0  0  0  0  0  0  0  0  0  0  0  0
   22.3134   34.8727   36.7395 C   0  0  0  0  0  0  0  0  0  0  0  0
   22.7936   33.9098   40.5666 C   0  0  0  0  0  0  0  0  0  0  0  0
  1  2  1  1  0  0  0
  1  6  1  0  0  0  0
  1 23  1  0  0  0  0
  3  4  1  6  0  0  0
  3  8  1  0  0  0  0
  3 30  1  0  0  0  0
  5  9  1  0  0  0  0
  5 27  1  0  0  0  0
  5 31  1  1  0  0  0
  6  7  1  1  0  0  0
  6 11  1  0  0  0  0
  8 13  1  0  0  0  0
  9 10  1  1  0  0  0
  9 15  1  0  0  0  0
 11 12  1  6  0  0  0
 11 17  1  0  0  0  0
 13 14  1  6  0  0  0
 13 19  1  0  0  0  0
 15 16  1  1  0  0  0
 15 20  1  0  0  0  0
 16 34  1  0  0  0  0
 17 18  1  1  0  0  0
 17 22  1  0  0  0  0
 19  2  1  1  0  0  0
 19 24  1  0  0  0  0
 20 21  1  6  0  0  0
 20 26  1  0  0  0  0
 20 33  1  0  0  0  0
 22 23  1  6  0  0  0
 22 28  1  0  0  0  0
 24 25  1  6  0  0  0
 24 30  1  0  0  0  0
 26 27  1  0  0  0  0
 28 29  1  6  0  0  0
 28 32  1  0  0  0  0
 30 31  1  1  0  0  0
M  END
>  <CHROM.1>
-172.67717072,-164.30500708,-93.82587504,47.93131474,97.59757821,-155.84694036
20.73992036,29.17469717,36.42200509,2.40800540,0.56554334,3.12002044

>  <Name>
ligand

>  <RI>
0

>  <Rbt.Current_Directory>
/home/itssahil/PROJECTS/Mol_Feturizer/New_Systems/rnas/4p3s

>  <Rbt.Executable>
rbdock ($Id: //depot/dev/client3/rdock/2013.1/src/exe/rbdock.cxx#4 $)

>  <Rbt.Library>
libRbt.so (2013.1, Build901 2013/11/27)

>  <Rbt.Parameter_File>
/export/apps/rDock/src/rDock_2013.1_src/data/scripts/dock_solv.prm

>  <Rbt.Receptor>
prm/pocket_docking_2.prm

>  <SCORE>
-18.9278

>  <SCORE.INTER>
-16.2755

>  <SCORE.INTER.CONST>
1

>  <SCORE.INTER.POLAR>
0

>  <SCORE.INTER.ROT>
6

>  <SCORE.INTER.SOLV>
20.9597

>  <SCORE.INTER.VDW>
-25.4369

>  <SCORE.INTER.norm>
-0.478691

>  <SCORE.INTRA>
-2.65226

>  <SCORE.INTRA.DIHEDRAL>
-5.67778

>  <SCORE.INTRA.DIHEDRAL.0>
15.8194

>  <SCORE.INTRA.POLAR>
0

>  <SCORE.INTRA.POLAR.0>
0

>  <SCORE.INTRA.REPUL>
0

>  <SCORE.INTRA.REPUL.0>
0

>  <SCORE.INTRA.SOLV>
-0.166007

>  <SCORE.INTRA.SOLV.lig_0>
-71.9159

>  <SCORE.INTRA.VDW>
0.269632

>  <SCORE.INTRA.VDW.0>
-3.53918

>  <SCORE.INTRA.norm>
-0.0780077

>  <SCORE.RESTR>
0

>  <SCORE.RESTR.CAVITY>
0

>  <SCORE.RESTR.norm>
0

>  <SCORE.SYSTEM>
0

>  <SCORE.SYSTEM.CONST>
0

>  <SCORE.SYSTEM.DIHEDRAL>
0

>  <SCORE.SYSTEM.SOLV>
0

>  <SCORE.SYSTEM.norm>
0

>  <SCORE.heavy>
34

>  <SCORE.norm>
-0.556699

>  <RMSD>
0.693

$$$$
ligand
 OpenBabel01301917533D
libRbt.so/2013.1/901 2013/11/27
 34 36  0  0  0  0  0  0  0  0999 V2000
   18.3100   28.3455   35.0262 C   0  0  2  0  0  0  0  0  0  0  0  0
   18.8462   27.7507   36.2123 O   0  0  0  0  0  0  0  0  0  0  0  0
   22.5526   28.1216   38.3401 C   0  0  2  0  0  0  0  0  0  0  0  0
   23.9807   28.0659   38.6806 N   0  0  0  0  0  0  0  0  0  0  0  0
   24.0797   30.9308   37.2846 C   0  0  2  0  0  0  0  0  0  0  0  0
   16.7761   28.6121   35.2646 C   0  0  2  0  0  0  0  0  0  0  0  0
   16.5711   29.5004   36.4200 N   0  0  0  0  0  0  0  0  0  0  0  0
   22.1086   26.6796   37.9013 C   0  0  0  0  0  0  0  0  0  0  0  0
   24.4097   31.9938   38.4056 C   0  0  2  0  0  0  0  0  0  0  0  0
   24.3862   31.3837   39.6846 O   0  0  0  0  0  0  0  0  0  0  0  0
   16.0235   27.2652   35.4846 C   0  0  1  0  0  0  0  0  0  0  0  0
   14.6209   27.5043   35.7030 O   0  0  0  0  0  0  0  0  0  0  0  0
   20.5789   26.7359   37.5564 C   0  0  2  0  0  0  0  0  0  0  0  0
   20.0878   25.3964   37.1240 N   0  0  0  0  0  0  0  0  0  0  0  0
   23.3317   33.1402   38.3275 C   0  0  1  0  0  0  0  0  0  0  0  0
   23.5631   34.1524   39.3777 N   0  0  0  0  0  0  0  0  0  0  0  0
   16.2629   26.3654   34.2496 C   0  0  2  0  0  0  0  0  0  0  0  0
   15.5693   25.1262   34.4261 O   0  0  0  0  0  0  0  0  0  0  0  0
   20.3044   27.7635   36.4171 C   0  0  2  0  0  0  0  0  0  0  0  0
   23.3924   33.7999   36.9135 C   0  0  1  0  0  0  0  0  0  0  0  0
   24.6837   34.3744   36.7402 O   0  0  0  0  0  0  0  0  0  0  0  0
   17.8267   26.1399   34.0766 C   0  0  2  0  0  0  0  0  0  0  0  0
   18.5263   27.4327   33.9061 O   0  0  0  0  0  0  0  0  0  0  0  0
   20.8160   29.1618   36.8579 C   0  0  2  0  0  0  0  0  0  0  0  0
   20.5819   30.0748   35.7877 O   0  0  0  0  0  0  0  0  0  0  0  0
   23.1491   32.6989   35.8319 C   0  0  0  0  0  0  0  0  0  0  0  0
   24.1226   31.5885   35.9639 O   0  0  0  0  0  0  0  0  0  0  0  0
   18.1714   25.2456   32.8511 C   0  0  2  0  0  0  0  0  0  0  0  0
   17.4186   24.0300   32.9275 O   0  0  0  0  0  0  0  0  0  0  0  0
   22.3365   29.1529   37.1518 C   0  0  1  0  0  0  0  0  0  0  0  0
   22.7157   30.4899   37.5799 O   0  0  0  0  0  0  0  0  0  0  0  0
   19.6387   24.8801   32.8053 C   0  0  0  0  0  0  0  0  0  0  0  0
   22.3578   34.9143   36.7509 C   0  0  0  0  0  0  0  0  0  0  0  0
   22.6671   33.8265   40.5142 C   0  0  0  0  0  0  0  0  0  0  0  0
  1  2  1  1  0  0  0
  1  6  1  0  0  0  0
  1 23  1  0  0  0  0
  3  4  1  6  0  0  0
  3  8  1  0  0  0  0
  3 30  1  0  0  0  0
  5  9  1  0  0  0  0
  5 27  1  0  0  0  0
  5 31  1  1  0  0  0
  6  7  1  1  0  0  0
  6 11  1  0  0  0  0
  8 13  1  0  0  0  0
  9 10  1  1  0  0  0
  9 15  1  0  0  0  0
 11 12  1  6  0  0  0
 11 17  1  0  0  0  0
 13 14  1  6  0  0  0
 13 19  1  0  0  0  0
 15 16  1  1  0  0  0
 15 20  1  0  0  0  0
 16 34  1  0  0  0  0
 17 18  1  1  0  0  0
 17 22  1  0  0  0  0
 19  2  1  1  0  0  0
 19 24  1  0  0  0  0
 20 21  1  6  0  0  0
 20 26  1  0  0  0  0
 20 33  1  0  0  0  0
 22 23  1  6  0  0  0
 22 28  1  0  0  0  0
 24 25  1  6  0  0  0
 24 30  1  0  0  0  0
 26 27  1  0  0  0  0
 28 29  1  1  0  0  0
 28 32  1  0  0  0  0
 30 31  1  1  0  0  0
M  END
>  <CHROM.1>
-162.08119126,-165.23264713,-97.00078829,-52.56813358,94.29722593,-153.01160737
20.60023908,29.20014889,36.41095630,2.35607264,0.39532170,-3.01543455

>  <Name>
ligand

>  <RI>
0

>  <Rbt.Current_Directory>
/home/itssahil/PROJECTS/Mol_Feturizer/New_Systems/rnas/4p3s

>  <Rbt.Executable>
rbdock ($Id: //depot/dev/client3/rdock/2013.1/src/exe/rbdock.cxx#4 $)

>  <Rbt.Library>
libRbt.so (2013.1, Build901 2013/11/27)

>  <Rbt.Parameter_File>
/export/apps/rDock/src/rDock_2013.1_src/data/scripts/dock_solv.prm

>  <Rbt.Receptor>
prm/pocket_docking_2.prm

>  <SCORE>
-18.8849

>  <SCORE.INTER>
-16.5783

>  <SCORE.INTER.CONST>
1

>  <SCORE.INTER.POLAR>
0

>  <SCORE.INTER.ROT>
6

>  <SCORE.INTER.SOLV>
19.9036

>  <SCORE.INTER.VDW>
-25.2868

>  <SCORE.INTER.norm>
-0.487598

>  <SCORE.INTRA>
-2.30655

>  <SCORE.INTRA.DIHEDRAL>
-4.84821

>  <SCORE.INTRA.DIHEDRAL.0>
15.8194

>  <SCORE.INTRA.POLAR>
0

>  <SCORE.INTRA.POLAR.0>
0

>  <SCORE.INTRA.REPUL>
0

>  <SCORE.INTRA.REPUL.0>
0

>  <SCORE.INTRA.SOLV>
0.315558

>  <SCORE.INTRA.SOLV.lig_0>
-71.9159

>  <SCORE.INTRA.VDW>
-0.0402284

>  <SCORE.INTRA.VDW.0>
-3.53918

>  <SCORE.INTRA.norm>
-0.0678398

>  <SCORE.RESTR>
0

>  <SCORE.RESTR.CAVITY>
0

>  <SCORE.RESTR.norm>
0

>  <SCORE.SYSTEM>
0

>  <SCORE.SYSTEM.CONST>
0

>  <SCORE.SYSTEM.DIHEDRAL>
0

>  <SCORE.SYSTEM.SOLV>
0

>  <SCORE.SYSTEM.norm>
0

>  <SCORE.heavy>
34

>  <SCORE.norm>
-0.555438

>  <RMSD>
0.693

$$$$
ligand
 OpenBabel01301917533D
libRbt.so/2013.1/901 2013/11/27
 34 36  0  0  0  0  0  0  0  0999 V2000
   18.4298   28.3023   35.0289 C   0  0  2  0  0  0  0  0  0  0  0  0
   18.9351   27.7195   36.2343 O   0  0  0  0  0  0  0  0  0  0  0  0
   22.6058   28.0538   38.4290 C   0  0  2  0  0  0  0  0  0  0  0  0
   24.0265   27.9816   38.7964 N   0  0  0  0  0  0  0  0  0  0  0  0
   24.1602   30.8707   37.3123 C   0  0  2  0  0  0  0  0  0  0  0  0
   16.8992   28.6085   35.2393 C   0  0  2  0  0  0  0  0  0  0  0  0
   16.6982   29.5243   36.3737 N   0  0  0  0  0  0  0  0  0  0  0  0
   22.1515   26.6154   37.9890 C   0  0  0  0  0  0  0  0  0  0  0  0
   24.4964   31.9855   38.3798 C   0  0  2  0  0  0  0  0  0  0  0  0
   24.5176   31.4287   39.6829 O   0  0  0  0  0  0  0  0  0  0  0  0
   16.1127   27.2837   35.4748 C   0  0  1  0  0  0  0  0  0  0  0  0
   14.7129   27.5590   35.6678 O   0  0  0  0  0  0  0  0  0  0  0  0
   20.6293   26.6895   37.6154 C   0  0  2  0  0  0  0  0  0  0  0  0
   20.1291   25.3542   37.1803 N   0  0  0  0  0  0  0  0  0  0  0  0
   23.3936   33.1065   38.2828 C   0  0  1  0  0  0  0  0  0  0  0  0
   23.6305   34.1657   39.2841 N   0  0  0  0  0  0  0  0  0  0  0  0
   16.3489   26.3540   34.2616 C   0  0  2  0  0  0  0  0  0  0  0  0
   15.6244   25.1347   34.4523 O   0  0  0  0  0  0  0  0  0  0  0  0
   20.3892   27.7147   36.4662 C   0  0  2  0  0  0  0  0  0  0  0  0
   23.4051   33.7080   36.8418 C   0  0  1  0  0  0  0  0  0  0  0  0
   24.6796   34.2998   36.6116 O   0  0  0  0  0  0  0  0  0  0  0  0
   17.9093   26.0896   34.1162 C   0  0  2  0  0  0  0  0  0  0  0  0
   18.6410   27.3625   33.9304 O   0  0  0  0  0  0  0  0  0  0  0  0
   20.9105   29.1086   36.9098 C   0  0  2  0  0  0  0  0  0  0  0  0
   20.7081   30.0191   35.8310 O   0  0  0  0  0  0  0  0  0  0  0  0
   23.1573   32.5585   35.8129 C   0  0  0  0  0  0  0  0  0  0  0  0
   24.1564   31.4737   35.9650 O   0  0  0  0  0  0  0  0  0  0  0  0
   18.2508   25.1631   32.9139 C   0  0  2  0  0  0  0  0  0  0  0  0
   17.4682   23.9674   33.0025 O   0  0  0  0  0  0  0  0  0  0  0  0
   22.4251   29.0818   37.2320 C   0  0  1  0  0  0  0  0  0  0  0  0
   22.8134   30.4160   37.6606 O   0  0  0  0  0  0  0  0  0  0  0  0
   19.7095   24.7623   32.8977 C   0  0  0  0  0  0  0  0  0  0  0  0
   22.3441   34.7944   36.6606 C   0  0  0  0  0  0  0  0  0  0  0  0
   22.8288   33.8285   40.4860 C   0  0  0  0  0  0  0  0  0  0  0  0
  1  2  1  1  0  0  0
  1  6  1  0  0  0  0
  1 23  1  0  0  0  0
  3  4  1  6  0  0  0
  3  8  1  0  0  0  0
  3 30  1  0  0  0  0
  5  9  1  0  0  0  0
  5 27  1  0  0  0  0
  5 31  1  1  0  0  0
  6  7  1  1  0  0  0
  6 11  1  0  0  0  0
  8 13  1  0  0  0  0
  9 10  1  1  0  0  0
  9 15  1  0  0  0  0
 11 12  1  6  0  0  0
 11 17  1  0  0  0  0
 13 14  1  6  0  0  0
 13 19  1  0  0  0  0
 15 16  1  1  0  0  0
 15 20  1  0  0  0  0
 16 34  1  0  0  0  0
 17 18  1  1  0  0  0
 17 22  1  0  0  0  0
 19  2  1  1  0  0  0
 19 24  1  0  0  0  0
 20 21  1  6  0  0  0
 20 26  1  0  0  0  0
 20 33  1  0  0  0  0
 22 23  1  6  0  0  0
 22 28  1  0  0  0  0
 24 25  1  6  0  0  0
 24 30  1  0  0  0  0
 26 27  1  0  0  0  0
 28 29  1  1  0  0  0
 28 32  1  0  0  0  0
 30 31  1  1  0  0  0
M  END
>  <CHROM.1>
-161.50623752,-164.57025325,-93.84999444,-52.50828923,98.17058150,-156.36393370
20.67478817,29.15447931,36.42473515,2.37018936,0.42566142,-3.05268239

>  <Name>
ligand

>  <RI>
0

>  <Rbt.Current_Directory>
/home/itssahil/PROJECTS/Mol_Feturizer/New_Systems/rnas/4p3s

>  <Rbt.Executable>
rbdock ($Id: //depot/dev/client3/rdock/2013.1/src/exe/rbdock.cxx#4 $)

>  <Rbt.Library>
libRbt.so (2013.1, Build901 2013/11/27)

>  <Rbt.Parameter_File>
/export/apps/rDock/src/rDock_2013.1_src/data/scripts/dock_solv.prm

>  <Rbt.Receptor>
prm/pocket_docking_2.prm

>  <SCORE>
-18.8597

>  <SCORE.INTER>
-16.6413

>  <SCORE.INTER.CONST>
1

>  <SCORE.INTER.POLAR>
0

>  <SCORE.INTER.ROT>
6

>  <SCORE.INTER.SOLV>
19.8891

>  <SCORE.INTER.VDW>
-25.3239

>  <SCORE.INTER.norm>
-0.489451

>  <SCORE.INTRA>
-2.22514

>  <SCORE.INTRA.DIHEDRAL>
-4.69363

>  <SCORE.INTRA.DIHEDRAL.0>
15.8194

>  <SCORE.INTRA.POLAR>
0

>  <SCORE.INTRA.POLAR.0>
0

>  <SCORE.INTRA.REPUL>
0

>  <SCORE.INTRA.REPUL.0>
0

>  <SCORE.INTRA.SOLV>
0.252032

>  <SCORE.INTRA.SOLV.lig_0>
-71.9159

>  <SCORE.INTRA.VDW>
-0.00433997

>  <SCORE.INTRA.VDW.0>
-3.53918

>  <SCORE.INTRA.norm>
-0.0654452

>  <SCORE.RESTR>
0.0068114

>  <SCORE.RESTR.CAVITY>
0.0068114

>  <SCORE.RESTR.norm>
0.000200335

>  <SCORE.SYSTEM>
0

>  <SCORE.SYSTEM.CONST>
0

>  <SCORE.SYSTEM.DIHEDRAL>
0

>  <SCORE.SYSTEM.SOLV>
0

>  <SCORE.SYSTEM.norm>
0

>  <SCORE.heavy>
34

>  <SCORE.norm>
-0.554696

>  <RMSD>
0.694

$$$$
ligand
 OpenBabel01301917533D
libRbt.so/2013.1/901 2013/11/27
 34 36  0  0  0  0  0  0  0  0999 V2000
   18.3352   28.3381   35.0395 C   0  0  2  0  0  0  0  0  0  0  0  0
   18.8532   27.8448   36.2790 O   0  0  0  0  0  0  0  0  0  0  0  0
   22.5648   28.1081   38.4137 C   0  0  2  0  0  0  0  0  0  0  0  0
   23.9918   28.0212   38.7528 N   0  0  0  0  0  0  0  0  0  0  0  0
   24.1219   30.9342   37.3722 C   0  0  2  0  0  0  0  0  0  0  0  0
   16.7945   28.6060   35.2266 C   0  0  2  0  0  0  0  0  0  0  0  0
   16.5582   29.5806   36.3038 N   0  0  0  0  0  0  0  0  0  0  0  0
   22.0968   26.6834   37.9444 C   0  0  0  0  0  0  0  0  0  0  0  0
   24.4609   32.0318   38.4564 C   0  0  2  0  0  0  0  0  0  0  0  0
   24.4661   31.4583   39.7524 O   0  0  0  0  0  0  0  0  0  0  0  0
   16.0502   27.2726   35.5383 C   0  0  1  0  0  0  0  0  0  0  0  0
   14.6413   27.5130   35.7103 O   0  0  0  0  0  0  0  0  0  0  0  0
   20.5683   26.7727   37.6010 C   0  0  2  0  0  0  0  0  0  0  0  0
   20.0549   25.4512   37.1402 N   0  0  0  0  0  0  0  0  0  0  0  0
   23.3704   33.1652   38.3652 C   0  0  1  0  0  0  0  0  0  0  0  0
   23.6100   34.2092   39.3818 N   0  0  0  0  0  0  0  0  0  0  0  0
   16.3225   26.2806   34.3834 C   0  0  2  0  0  0  0  0  0  0  0  0
   15.6370   25.0518   34.6443 O   0  0  0  0  0  0  0  0  0  0  0  0
   20.3113   27.8288   36.4838 C   0  0  2  0  0  0  0  0  0  0  0  0
   23.3995   33.7848   36.9322 C   0  0  1  0  0  0  0  0  0  0  0  0
   24.6817   34.3664   36.7196 O   0  0  0  0  0  0  0  0  0  0  0  0
   17.8914   26.0592   34.2587 C   0  0  2  0  0  0  0  0  0  0  0  0
   18.5822   27.3420   33.9996 O   0  0  0  0  0  0  0  0  0  0  0  0
   20.8463   29.2086   36.9543 C   0  0  2  0  0  0  0  0  0  0  0  0
   20.6277   30.1480   35.9038 O   0  0  0  0  0  0  0  0  0  0  0  0
   23.1482   32.6512   35.8867 C   0  0  0  0  0  0  0  0  0  0  0  0
   24.1350   31.5543   36.0327 O   0  0  0  0  0  0  0  0  0  0  0  0
   18.2687   25.0746   33.1147 C   0  0  2  0  0  0  0  0  0  0  0  0
   17.5383   23.8545   33.2823 O   0  0  0  0  0  0  0  0  0  0  0  0
   22.3663   29.1679   37.2477 C   0  0  1  0  0  0  0  0  0  0  0  0
   22.7678   30.4890   37.7041 O   0  0  0  0  0  0  0  0  0  0  0  0
   19.7432   24.7359   33.1155 C   0  0  0  0  0  0  0  0  0  0  0  0
   22.3511   34.8843   36.7565 C   0  0  0  0  0  0  0  0  0  0  0  0
   22.7676   33.8847   40.5591 C   0  0  0  0  0  0  0  0  0  0  0  0
  1  2  1  1  0  0  0
  1  6  1  0  0  0  0
  1 23  1  0  0  0  0
  3  4  1  6  0  0  0
  3  8  1  0  0  0  0
  3 30  1  0  0  0  0
  5  9  1  0  0  0  0
  5 27  1  0  0  0  0
  5 31  1  1  0  0  0
  6  7  1  1  0  0  0
  6 11  1  0  0  0  0
  8 13  1  0  0  0  0
  9 10  1  1  0  0  0
  9 15  1  0  0  0  0
 11 12  1  6  0  0  0
 11 17  1  0  0  0  0
 13 14  1  6  0  0  0
 13 19  1  0  0  0  0
 15 16  1  1  0  0  0
 15 20  1  0  0  0  0
 16 34  1  0  0  0  0
 17 18  1  1  0  0  0
 17 22  1  0  0  0  0
 19  2  1  1  0  0  0
 19 24  1  0  0  0  0
 20 21  1  6  0  0  0
 20 26  1  0  0  0  0
 20 33  1  0  0  0  0
 22 23  1  6  0  0  0
 22 28  1  0  0  0  0
 24 25  1  6  0  0  0
 24 30  1  0  0  0  0
 26 27  1  0  0  0  0
 28 29  1  1  0  0  0
 28 32  1  0  0  0  0
 30 31  1  1  0  0  0
M  END
>  <CHROM.1>
-165.02961356,-158.31688769,-95.34274583,-53.27496929,96.65507308,-156.76343870
20.63503099,29.19136557,36.49235999,2.35049319,0.39075017,-3.02614005

>  <Name>
ligand

>  <RI>
0

>  <Rbt.Current_Directory>
/home/itssahil/PROJECTS/Mol_Feturizer/New_Systems/rnas/4p3s

>  <Rbt.Executable>
rbdock ($Id: //depot/dev/client3/rdock/2013.1/src/exe/rbdock.cxx#4 $)

>  <Rbt.Library>
libRbt.so (2013.1, Build901 2013/11/27)

>  <Rbt.Parameter_File>
/export/apps/rDock/src/rDock_2013.1_src/data/scripts/dock_solv.prm

>  <Rbt.Receptor>
prm/pocket_docking_2.prm

>  <SCORE>
-18.8744

>  <SCORE.INTER>
-16.6834

>  <SCORE.INTER.CONST>
1

>  <SCORE.INTER.POLAR>
0

>  <SCORE.INTER.ROT>
6

>  <SCORE.INTER.SOLV>
19.2519

>  <SCORE.INTER.VDW>
-25.1396

>  <SCORE.INTER.norm>
-0.490687

>  <SCORE.INTRA>
-2.19101

>  <SCORE.INTRA.DIHEDRAL>
-4.55958

>  <SCORE.INTRA.DIHEDRAL.0>
15.8194

>  <SCORE.INTRA.POLAR>
0

>  <SCORE.INTRA.POLAR.0>
0

>  <SCORE.INTRA.REPUL>
0

>  <SCORE.INTRA.REPUL.0>
0

>  <SCORE.INTRA.SOLV>
0.630098

>  <SCORE.INTRA.SOLV.lig_0>
-71.9159

>  <SCORE.INTRA.VDW>
-0.226275

>  <SCORE.INTRA.VDW.0>
-3.53918

>  <SCORE.INTRA.norm>
-0.0644416

>  <SCORE.RESTR>
0

>  <SCORE.RESTR.CAVITY>
0

>  <SCORE.RESTR.norm>
0

>  <SCORE.SYSTEM>
0

>  <SCORE.SYSTEM.CONST>
0

>  <SCORE.SYSTEM.DIHEDRAL>
0

>  <SCORE.SYSTEM.SOLV>
0

>  <SCORE.SYSTEM.norm>
0

>  <SCORE.heavy>
34

>  <SCORE.norm>
-0.555129

>  <RMSD>
0.694

$$$$
ligand
 OpenBabel01301917533D
libRbt.so/2013.1/901 2013/11/27
 34 36  0  0  0  0  0  0  0  0999 V2000
   18.3502   28.3476   35.0389 C   0  0  2  0  0  0  0  0  0  0  0  0
   18.8688   27.8649   36.2823 O   0  0  0  0  0  0  0  0  0  0  0  0
   22.5731   28.2147   38.4174 C   0  0  2  0  0  0  0  0  0  0  0  0
   23.9994   28.1457   38.7629 N   0  0  0  0  0  0  0  0  0  0  0  0
   24.1288   31.0031   37.3145 C   0  0  2  0  0  0  0  0  0  0  0  0
   16.8156   28.6445   35.2326 C   0  0  2  0  0  0  0  0  0  0  0  0
   16.6036   29.6395   36.2961 N   0  0  0  0  0  0  0  0  0  0  0  0
   22.1132   26.7734   37.9927 C   0  0  0  0  0  0  0  0  0  0  0  0
   24.4709   32.0921   38.4065 C   0  0  2  0  0  0  0  0  0  0  0  0
   24.4576   31.5131   39.7000 O   0  0  0  0  0  0  0  0  0  0  0  0
   16.0513   27.3289   35.5703 C   0  0  1  0  0  0  0  0  0  0  0  0
   14.6479   27.5957   35.7484 O   0  0  0  0  0  0  0  0  0  0  0  0
   20.5853   26.8441   37.6426 C   0  0  2  0  0  0  0  0  0  0  0  0
   20.0796   25.5060   37.2230 N   0  0  0  0  0  0  0  0  0  0  0  0
   23.3946   33.2387   38.3104 C   0  0  1  0  0  0  0  0  0  0  0  0
   23.6373   34.2754   39.3337 N   0  0  0  0  0  0  0  0  0  0  0  0
   16.2984   26.3146   34.4291 C   0  0  2  0  0  0  0  0  0  0  0  0
   15.5943   25.1017   34.7140 O   0  0  0  0  0  0  0  0  0  0  0  0
   20.3264   27.8626   36.4914 C   0  0  2  0  0  0  0  0  0  0  0  0
   23.4440   33.8640   36.8804 C   0  0  1  0  0  0  0  0  0  0  0  0
   24.7348   34.4312   36.6819 O   0  0  0  0  0  0  0  0  0  0  0  0
   17.8624   26.0647   34.2969 C   0  0  2  0  0  0  0  0  0  0  0  0
   18.5728   27.3315   34.0130 O   0  0  0  0  0  0  0  0  0  0  0  0
   20.8534   29.2594   36.9188 C   0  0  2  0  0  0  0  0  0  0  0  0
   20.6333   30.1635   35.8381 O   0  0  0  0  0  0  0  0  0  0  0  0
   23.1888   32.7378   35.8278 C   0  0  0  0  0  0  0  0  0  0  0  0
   24.1612   31.6288   35.9779 O   0  0  0  0  0  0  0  0  0  0  0  0
   18.2148   25.0562   33.1659 C   0  0  2  0  0  0  0  0  0  0  0  0
   17.5228   23.8246   33.3995 O   0  0  0  0  0  0  0  0  0  0  0  0
   22.3728   29.2356   37.2174 C   0  0  1  0  0  0  0  0  0  0  0  0
   22.7666   30.5725   37.6323 O   0  0  0  0  0  0  0  0  0  0  0  0
   19.6959   24.7527   33.1121 C   0  0  0  0  0  0  0  0  0  0  0  0
   22.4101   34.9764   36.7002 C   0  0  0  0  0  0  0  0  0  0  0  0
   22.8770   33.8885   40.5474 C   0  0  0  0  0  0  0  0  0  0  0  0
  1  2  1  1  0  0  0
  1  6  1  0  0  0  0
  1 23  1  0  0  0  0
  3  4  1  6  0  0  0
  3  8  1  0  0  0  0
  3 30  1  0  0  0  0
  5  9  1  0  0  0  0
  5 27  1  0  0  0  0
  5 31  1  1  0  0  0
  6  7  1  1  0  0  0
  6 11  1  0  0  0  0
  8 13  1  0  0  0  0
  9 10  1  1  0  0  0
  9 15  1  0  0  0  0
 11 12  1  6  0  0  0
 11 17  1  0  0  0  0
 13 14  1  6  0  0  0
 13 19  1  0  0  0  0
 15 16  1  1  0  0  0
 15 20  1  0  0  0  0
 16 34  1  0  0  0  0
 17 18  1  1  0  0  0
 17 22  1  0  0  0  0
 19  2  1  1  0  0  0
 19 24  1  0  0  0  0
 20 21  1  6  0  0  0
 20 26  1  0  0  0  0
 20 33  1  0  0  0  0
 22 23  1  6  0  0  0
 22 28  1  0  0  0  0
 24 25  1  6  0  0  0
 24 30  1  0  0  0  0
 26 27  1  0  0  0  0
 28 29  1  1  0  0  0
 28 32  1  0  0  0  0
 30 31  1  1  0  0  0
M  END
>  <CHROM.1>
-163.33751934,-159.89066101,-90.23464107,-56.50300005,95.40847730,-154.15063962
20.64625580,29.24192393,36.48821682,2.35656620,0.39570191,-3.04775643

>  <Name>
ligand

>  <RI>
0

>  <Rbt.Current_Directory>
/home/itssahil/PROJECTS/Mol_Feturizer/New_Systems/rnas/4p3s

>  <Rbt.Executable>
rbdock ($Id: //depot/dev/client3/rdock/2013.1/src/exe/rbdock.cxx#4 $)

>  <Rbt.Library>
libRbt.so (2013.1, Build901 2013/11/27)

>  <Rbt.Parameter_File>
/export/apps/rDock/src/rDock_2013.1_src/data/scripts/dock_solv.prm

>  <Rbt.Receptor>
prm/pocket_docking_3.prm

>  <SCORE>
-18.8295

>  <SCORE.INTER>
-16.9256

>  <SCORE.INTER.CONST>
1

>  <SCORE.INTER.POLAR>
0

>  <SCORE.INTER.ROT>
6

>  <SCORE.INTER.SOLV>
19.2527

>  <SCORE.INTER.VDW>
-25.3013

>  <SCORE.INTER.norm>
-0.497811

>  <SCORE.INTRA>
-1.90989

>  <SCORE.INTRA.DIHEDRAL>
-4.62159

>  <SCORE.INTRA.DIHEDRAL.0>
15.8194

>  <SCORE.INTRA.POLAR>
0

>  <SCORE.INTRA.POLAR.0>
0

>  <SCORE.INTRA.REPUL>
0

>  <SCORE.INTRA.REPUL.0>
0

>  <SCORE.INTRA.SOLV>
0.616365

>  <SCORE.INTRA.SOLV.lig_0>
-71.9159

>  <SCORE.INTRA.VDW>
0.0927217

>  <SCORE.INTRA.VDW.0>
-3.53918

>  <SCORE.INTRA.norm>
-0.0561733

>  <SCORE.RESTR>
0.00593021

>  <SCORE.RESTR.CAVITY>
0.00593021

>  <SCORE.RESTR.norm>
0.000174418

>  <SCORE.SYSTEM>
0

>  <SCORE.SYSTEM.CONST>
0

>  <SCORE.SYSTEM.DIHEDRAL>
0

>  <SCORE.SYSTEM.SOLV>
0

>  <SCORE.SYSTEM.norm>
0

>  <SCORE.heavy>
34

>  <SCORE.norm>
-0.55381

>  <RMSD>
0.694

$$$$
ligand
 OpenBabel01301917533D
libRbt.so/2013.1/901 2013/11/27
 34 36  0  0  0  0  0  0  0  0999 V2000
   18.3421   28.3385   35.0521 C   0  0  2  0  0  0  0  0  0  0  0  0
   18.8513   27.8337   36.2907 O   0  0  0  0  0  0  0  0  0  0  0  0
   22.5569   28.0788   38.4380 C   0  0  2  0  0  0  0  0  0  0  0  0
   23.9816   27.9812   38.7833 N   0  0  0  0  0  0  0  0  0  0  0  0
   24.1299   30.8988   37.3459 C   0  0  2  0  0  0  0  0  0  0  0  0
   16.8069   28.6361   35.2408 C   0  0  2  0  0  0  0  0  0  0  0  0
   16.5905   29.6138   36.3193 N   0  0  0  0  0  0  0  0  0  0  0  0
   22.0775   26.6549   37.9776 C   0  0  0  0  0  0  0  0  0  0  0  0
   24.4864   32.0110   38.4096 C   0  0  2  0  0  0  0  0  0  0  0  0
   24.5208   31.4534   39.7120 O   0  0  0  0  0  0  0  0  0  0  0  0
   16.0371   27.3170   35.5515 C   0  0  1  0  0  0  0  0  0  0  0  0
   14.6333   27.5845   35.7249 O   0  0  0  0  0  0  0  0  0  0  0  0
   20.5512   26.7558   37.6275 C   0  0  2  0  0  0  0  0  0  0  0  0
   20.0273   25.4357   37.1747 N   0  0  0  0  0  0  0  0  0  0  0  0
   23.3894   33.1388   38.3271 C   0  0  1  0  0  0  0  0  0  0  0  0
   23.6455   34.1960   39.3259 N   0  0  0  0  0  0  0  0  0  0  0  0
   16.2893   26.3213   34.3952 C   0  0  2  0  0  0  0  0  0  0  0  0
   15.5802   25.1057   34.6552 O   0  0  0  0  0  0  0  0  0  0  0  0
   20.3084   27.8058   36.5014 C   0  0  2  0  0  0  0  0  0  0  0  0
   23.3863   33.7409   36.8864 C   0  0  1  0  0  0  0  0  0  0  0  0
   24.6613   34.3250   36.6403 O   0  0  0  0  0  0  0  0  0  0  0  0
   17.8535   26.0695   34.2690 C   0  0  2  0  0  0  0  0  0  0  0  0
   18.5689   27.3390   34.0109 O   0  0  0  0  0  0  0  0  0  0  0  0
   20.8543   29.1841   36.9635 C   0  0  2  0  0  0  0  0  0  0  0  0
   20.6486   30.1175   35.9051 O   0  0  0  0  0  0  0  0  0  0  0  0
   23.1183   32.5935   35.8602 C   0  0  0  0  0  0  0  0  0  0  0  0
   24.1126   31.5026   35.9991 O   0  0  0  0  0  0  0  0  0  0  0  0
   18.2107   25.0791   33.1237 C   0  0  2  0  0  0  0  0  0  0  0  0
   17.4990   23.8525   33.3215 O   0  0  0  0  0  0  0  0  0  0  0  0
   22.3728   29.1315   37.2632 C   0  0  1  0  0  0  0  0  0  0  0  0
   22.7848   30.4522   37.7112 O   0  0  0  0  0  0  0  0  0  0  0  0
   19.6884   24.7569   33.0872 C   0  0  0  0  0  0  0  0  0  0  0  0
   22.3297   34.8339   36.7192 C   0  0  0  0  0  0  0  0  0  0  0  0
   22.9124   33.8270   40.5617 C   0  0  0  0  0  0  0  0  0  0  0  0
  1  2  1  1  0  0  0
  1  6  1  0  0  0  0
  1 23  1  0  0  0  0
  3  4  1  6  0  0  0
  3  8  1  0  0  0  0
  3 30  1  0  0  0  0
  5  9  1  0  0  0  0
  5 27  1  0  0  0  0
  5 31  1  1  0  0  0
  6  7  1  1  0  0  0
  6 11  1  0  0  0  0
  8 13  1  0  0  0  0
  9 10  1  1  0  0  0
  9 15  1  0  0  0  0
 11 12  1  6  0  0  0
 11 17  1  0  0  0  0
 13 14  1  6  0  0  0
 13 19  1  0  0  0  0
 15 16  1  1  0  0  0
 15 20  1  0  0  0  0
 16 34  1  0  0  0  0
 17 18  1  1  0  0  0
 17 22  1  0  0  0  0
 19  2  1  1  0  0  0
 19 24  1  0  0  0  0
 20 21  1  6  0  0  0
 20 26  1  0  0  0  0
 20 33  1  0  0  0  0
 22 23  1  6  0  0  0
 22 28  1  0  0  0  0
 24 25  1  6  0  0  0
 24 30  1  0  0  0  0
 26 27  1  0  0  0  0
 28 29  1  1  0  0  0
 28 32  1  0  0  0  0
 30 31  1  1  0  0  0
M  END
>  <CHROM.1>
-164.22860304,-159.11221271,-91.00746829,-55.66256993,98.48861611,-157.60658868
20.63171752,29.17996384,36.48970243,2.36573482,0.40379630,-3.04735220

>  <Name>
ligand

>  <RI>
0

>  <Rbt.Current_Directory>
/home/itssahil/PROJECTS/Mol_Feturizer/New_Systems/rnas/4p3s

>  <Rbt.Executable>
rbdock ($Id: //depot/dev/client3/rdock/2013.1/src/exe/rbdock.cxx#4 $)

>  <Rbt.Library>
libRbt.so (2013.1, Build901 2013/11/27)

>  <Rbt.Parameter_File>
/export/apps/rDock/src/rDock_2013.1_src/data/scripts/dock_solv.prm

>  <Rbt.Receptor>
prm/pocket_docking_2.prm

>  <SCORE>
-18.8438

>  <SCORE.INTER>
-16.7528

>  <SCORE.INTER.CONST>
1

>  <SCORE.INTER.POLAR>
0

>  <SCORE.INTER.ROT>
6

>  <SCORE.INTER.SOLV>
19.2714

>  <SCORE.INTER.VDW>
-25.1923

>  <SCORE.INTER.norm>
-0.49273

>  <SCORE.INTRA>
-2.091

>  <SCORE.INTRA.DIHEDRAL>
-4.65309

>  <SCORE.INTRA.DIHEDRAL.0>
15.8194

>  <SCORE.INTRA.POLAR>
0

>  <SCORE.INTRA.POLAR.0>
0

>  <SCORE.INTRA.REPUL>
0

>  <SCORE.INTRA.REPUL.0>
0

>  <SCORE.INTRA.SOLV>
0.529916

>  <SCORE.INTRA.SOLV.lig_0>
-71.9159

>  <SCORE.INTRA.VDW>
-0.0294183

>  <SCORE.INTRA.VDW.0>
-3.53918

>  <SCORE.INTRA.norm>
-0.0615001

>  <SCORE.RESTR>
0

>  <SCORE.RESTR.CAVITY>
0

>  <SCORE.RESTR.norm>
0

>  <SCORE.SYSTEM>
0

>  <SCORE.SYSTEM.CONST>
0

>  <SCORE.SYSTEM.DIHEDRAL>
0

>  <SCORE.SYSTEM.SOLV>
0

>  <SCORE.SYSTEM.norm>
0

>  <SCORE.heavy>
34

>  <SCORE.norm>
-0.55423

>  <RMSD>
0.703

$$$$
ligand
 OpenBabel01301917533D
libRbt.so/2013.1/901 2013/11/27
 34 36  0  0  0  0  0  0  0  0999 V2000
   18.4674   28.3228   35.1986 C   0  0  2  0  0  0  0  0  0  0  0  0
   18.9872   27.7455   36.4006 O   0  0  0  0  0  0  0  0  0  0  0  0
   22.6805   28.0801   38.5569 C   0  0  2  0  0  0  0  0  0  0  0  0
   24.1055   28.0109   38.9082 N   0  0  0  0  0  0  0  0  0  0  0  0
   24.2050   30.9171   37.4242 C   0  0  2  0  0  0  0  0  0  0  0  0
   16.8965   28.3488   35.3096 C   0  0  2  0  0  0  0  0  0  0  0  0
   16.4658   29.1301   36.4801 N   0  0  0  0  0  0  0  0  0  0  0  0
   22.2268   26.6427   38.1129 C   0  0  0  0  0  0  0  0  0  0  0  0
   24.5287   32.0734   38.4506 C   0  0  2  0  0  0  0  0  0  0  0  0
   24.5735   31.5610   39.7712 O   0  0  0  0  0  0  0  0  0  0  0  0
   16.3392   26.8962   35.4008 C   0  0  1  0  0  0  0  0  0  0  0  0
   14.9034   26.9153   35.5026 O   0  0  0  0  0  0  0  0  0  0  0  0
   20.7003   26.7134   37.7565 C   0  0  2  0  0  0  0  0  0  0  0  0
   20.2003   25.3789   37.3186 N   0  0  0  0  0  0  0  0  0  0  0  0
   23.4027   33.1685   38.3276 C   0  0  1  0  0  0  0  0  0  0  0  0
   23.6277   34.2651   39.2908 N   0  0  0  0  0  0  0  0  0  0  0  0
   16.8120   26.1132   34.1537 C   0  0  2  0  0  0  0  0  0  0  0  0
   16.3002   24.7780   34.2118 O   0  0  0  0  0  0  0  0  0  0  0  0
   20.4438   27.7448   36.6165 C   0  0  2  0  0  0  0  0  0  0  0  0
   23.3885   33.7216   36.8674 C   0  0  1  0  0  0  0  0  0  0  0  0
   24.6485   34.3305   36.6048 O   0  0  0  0  0  0  0  0  0  0  0  0
   18.4008   26.1284   34.1123 C   0  0  2  0  0  0  0  0  0  0  0  0
   18.9099   27.5170   34.0631 O   0  0  0  0  0  0  0  0  0  0  0  0
   20.9648   29.1379   37.0630 C   0  0  2  0  0  0  0  0  0  0  0  0
   20.7472   30.0543   35.9922 O   0  0  0  0  0  0  0  0  0  0  0  0
   23.1541   32.5337   35.8798 C   0  0  0  0  0  0  0  0  0  0  0  0
   24.1763   31.4746   36.0577 O   0  0  0  0  0  0  0  0  0  0  0  0
   18.9757   25.3656   32.8843 C   0  0  2  0  0  0  0  0  0  0  0  0
   18.2532   25.7503   31.7094 O   0  0  0  0  0  0  0  0  0  0  0  0
   22.4829   29.1147   37.3684 C   0  0  1  0  0  0  0  0  0  0  0  0
   22.8709   30.4477   37.8011 O   0  0  0  0  0  0  0  0  0  0  0  0
   18.8518   23.8654   33.0343 C   0  0  0  0  0  0  0  0  0  0  0  0
   22.3041   34.7801   36.6609 C   0  0  0  0  0  0  0  0  0  0  0  0
   22.8379   33.9564   40.5081 C   0  0  0  0  0  0  0  0  0  0  0  0
  1  2  1  1  0  0  0
  1  6  1  0  0  0  0
  1 23  1  0  0  0  0
  3  4  1  6  0  0  0
  3  8  1  0  0  0  0
  3 30  1  0  0  0  0
  5  9  1  0  0  0  0
  5 27  1  0  0  0  0
  5 31  1  1  0  0  0
  6  7  1  1  0  0  0
  6 11  1  0  0  0  0
  8 13  1  0  0  0  0
  9 10  1  1  0  0  0
  9 15  1  0  0  0  0
 11 12  1  6  0  0  0
 11 17  1  0  0  0  0
 13 14  1  6  0  0  0
 13 19  1  0  0  0  0
 15 16  1  1  0  0  0
 15 20  1  0  0  0  0
 16 34  1  0  0  0  0
 17 18  1  1  0  0  0
 17 22  1  0  0  0  0
 19  2  1  1  0  0  0
 19 24  1  0  0  0  0
 20 21  1  6  0  0  0
 20 26  1  0  0  0  0
 20 33  1  0  0  0  0
 22 23  1  6  0  0  0
 22 28  1  0  0  0  0
 24 25  1  6  0  0  0
 24 30  1  0  0  0  0
 26 27  1  0  0  0  0
 28 29  1  6  0  0  0
 28 32  1  0  0  0  0
 30 31  1  1  0  0  0
M  END
>  <CHROM.1>
-173.13692559,-163.99577642,-94.18553354,45.80221097,99.03567803,-159.08976476
20.77932652,29.15531472,36.44168467,2.41100357,0.55983005,3.11614014

>  <Name>
ligand

>  <RI>
0

>  <Rbt.Current_Directory>
/home/itssahil/PROJECTS/Mol_Feturizer/New_Systems/rnas/4p3s

>  <Rbt.Executable>
rbdock ($Id: //depot/dev/client3/rdock/2013.1/src/exe/rbdock.cxx#4 $)

>  <Rbt.Library>
libRbt.so (2013.1, Build901 2013/11/27)

>  <Rbt.Parameter_File>
/export/apps/rDock/src/rDock_2013.1_src/data/scripts/dock_solv.prm

>  <Rbt.Receptor>
prm/pocket_docking_2.prm

>  <SCORE>
-18.8571

>  <SCORE.INTER>
-16.0013

>  <SCORE.INTER.CONST>
1

>  <SCORE.INTER.POLAR>
0

>  <SCORE.INTER.ROT>
6

>  <SCORE.INTER.SOLV>
21.0087

>  <SCORE.INTER.VDW>
-25.2704

>  <SCORE.INTER.norm>
-0.470626

>  <SCORE.INTRA>
-2.85577

>  <SCORE.INTRA.DIHEDRAL>
-5.78765

>  <SCORE.INTRA.DIHEDRAL.0>
15.8194

>  <SCORE.INTRA.POLAR>
0

>  <SCORE.INTRA.POLAR.0>
0

>  <SCORE.INTRA.REPUL>
0

>  <SCORE.INTRA.REPUL.0>
0

>  <SCORE.INTRA.SOLV>
-0.240476

>  <SCORE.INTRA.SOLV.lig_0>
-71.9159

>  <SCORE.INTRA.VDW>
0.158289

>  <SCORE.INTRA.VDW.0>
-3.53918

>  <SCORE.INTRA.norm>
-0.0839933

>  <SCORE.RESTR>
0

>  <SCORE.RESTR.CAVITY>
0

>  <SCORE.RESTR.norm>
0

>  <SCORE.SYSTEM>
0

>  <SCORE.SYSTEM.CONST>
0

>  <SCORE.SYSTEM.DIHEDRAL>
0

>  <SCORE.SYSTEM.SOLV>
0

>  <SCORE.SYSTEM.norm>
0

>  <SCORE.heavy>
34

>  <SCORE.norm>
-0.554619

>  <RMSD>
0.711

$$$$
ligand
 OpenBabel01301917533D
libRbt.so/2013.1/901 2013/11/27
 34 36  0  0  0  0  0  0  0  0999 V2000
   18.3194   28.3576   35.0608 C   0  0  2  0  0  0  0  0  0  0  0  0
   18.8460   27.7950   36.2668 O   0  0  0  0  0  0  0  0  0  0  0  0
   22.5662   28.0484   38.3876 C   0  0  2  0  0  0  0  0  0  0  0  0
   23.9946   27.9604   38.7203 N   0  0  0  0  0  0  0  0  0  0  0  0
   24.1306   30.8652   37.3899 C   0  0  2  0  0  0  0  0  0  0  0  0
   16.7729   28.5790   35.2604 C   0  0  2  0  0  0  0  0  0  0  0  0
   16.5134   29.4749   36.3988 N   0  0  0  0  0  0  0  0  0  0  0  0
   22.0971   26.6261   37.9121 C   0  0  0  0  0  0  0  0  0  0  0  0
   24.4452   31.9797   38.4643 C   0  0  2  0  0  0  0  0  0  0  0  0
   24.4100   31.4289   39.7697 O   0  0  0  0  0  0  0  0  0  0  0  0
   16.0575   27.2120   35.4810 C   0  0  1  0  0  0  0  0  0  0  0  0
   14.6434   27.4097   35.6640 O   0  0  0  0  0  0  0  0  0  0  0  0
   20.5671   26.7164   37.5755 C   0  0  2  0  0  0  0  0  0  0  0  0
   20.0526   25.3972   37.1094 N   0  0  0  0  0  0  0  0  0  0  0  0
   23.3645   33.1174   38.3224 C   0  0  1  0  0  0  0  0  0  0  0  0
   23.5814   34.1775   39.3273 N   0  0  0  0  0  0  0  0  0  0  0  0
   16.3536   26.3046   34.2640 C   0  0  2  0  0  0  0  0  0  0  0  0
   15.6948   25.0466   34.4410 O   0  0  0  0  0  0  0  0  0  0  0  0
   20.3050   27.7787   36.4655 C   0  0  2  0  0  0  0  0  0  0  0  0
   23.4382   33.7117   36.8803 C   0  0  1  0  0  0  0  0  0  0  0  0
   24.7294   34.2824   36.6944 O   0  0  0  0  0  0  0  0  0  0  0  0
   17.9272   26.1261   34.1299 C   0  0  2  0  0  0  0  0  0  0  0  0
   18.5901   27.4381   33.9582 O   0  0  0  0  0  0  0  0  0  0  0  0
   20.8411   29.1561   36.9415 C   0  0  2  0  0  0  0  0  0  0  0  0
   20.6177   30.1013   35.8972 O   0  0  0  0  0  0  0  0  0  0  0  0
   23.2099   32.5614   35.8478 C   0  0  0  0  0  0  0  0  0  0  0  0
   24.1855   31.4618   36.0409 O   0  0  0  0  0  0  0  0  0  0  0  0
   18.3280   25.2277   32.9247 C   0  0  2  0  0  0  0  0  0  0  0  0
   17.5526   24.0244   32.9548 O   0  0  0  0  0  0  0  0  0  0  0  0
   22.3624   29.1147   37.2284 C   0  0  1  0  0  0  0  0  0  0  0  0
   22.7649   30.4333   37.6907 O   0  0  0  0  0  0  0  0  0  0  0  0
   19.7894   24.8385   32.9633 C   0  0  0  0  0  0  0  0  0  0  0  0
   22.4018   34.8137   36.6558 C   0  0  0  0  0  0  0  0  0  0  0  0
   22.7413   33.8515   40.5057 C   0  0  0  0  0  0  0  0  0  0  0  0
  1  2  1  1  0  0  0
  1  6  1  0  0  0  0
  1 23  1  0  0  0  0
  3  4  1  6  0  0  0
  3  8  1  0  0  0  0
  3 30  1  0  0  0  0
  5  9  1  0  0  0  0
  5 27  1  0  0  0  0
  5 31  1  1  0  0  0
  6  7  1  1  0  0  0
  6 11  1  0  0  0  0
  8 13  1  0  0  0  0
  9 10  1  1  0  0  0
  9 15  1  0  0  0  0
 11 12  1  6  0  0  0
 11 17  1  0  0  0  0
 13 14  1  6  0  0  0
 13 19  1  0  0  0  0
 15 16  1  1  0  0  0
 15 20  1  0  0  0  0
 16 34  1  0  0  0  0
 17 18  1  1  0  0  0
 17 22  1  0  0  0  0
 19  2  1  1  0  0  0
 19 24  1  0  0  0  0
 20 21  1  6  0  0  0
 20 26  1  0  0  0  0
 20 33  1  0  0  0  0
 22 23  1  6  0  0  0
 22 28  1  0  0  0  0
 24 25  1  6  0  0  0
 24 30  1  0  0  0  0
 26 27  1  0  0  0  0
 28 29  1  1  0  0  0
 28 32  1  0  0  0  0
 30 31  1  1  0  0  0
M  END
>  <CHROM.1>
-165.95274507,-161.47147780,-93.30500316,-49.09157911,94.88972540,-157.65790850
20.64314178,29.16416140,36.44224084,2.35686811,0.39566408,-3.01791643

>  <Name>
ligand

>  <RI>
0

>  <Rbt.Current_Directory>
/home/itssahil/PROJECTS/Mol_Feturizer/New_Systems/rnas/4p3s

>  <Rbt.Executable>
rbdock ($Id: //depot/dev/client3/rdock/2013.1/src/exe/rbdock.cxx#4 $)

>  <Rbt.Library>
libRbt.so (2013.1, Build901 2013/11/27)

>  <Rbt.Parameter_File>
/export/apps/rDock/src/rDock_2013.1_src/data/scripts/dock_solv.prm

>  <Rbt.Receptor>
prm/pocket_docking_2.prm

>  <SCORE>
-18.8259

>  <SCORE.INTER>
-16.2696

>  <SCORE.INTER.CONST>
1

>  <SCORE.INTER.POLAR>
0

>  <SCORE.INTER.ROT>
6

>  <SCORE.INTER.SOLV>
19.7694

>  <SCORE.INTER.VDW>
-25.0362

>  <SCORE.INTER.norm>
-0.478517

>  <SCORE.INTRA>
-2.55631

>  <SCORE.INTRA.DIHEDRAL>
-5.45609

>  <SCORE.INTRA.DIHEDRAL.0>
15.8194

>  <SCORE.INTRA.POLAR>
0

>  <SCORE.INTRA.POLAR.0>
0

>  <SCORE.INTRA.REPUL>
0

>  <SCORE.INTRA.REPUL.0>
0

>  <SCORE.INTRA.SOLV>
0.360706

>  <SCORE.INTRA.SOLV.lig_0>
-71.9159

>  <SCORE.INTRA.VDW>
-0.00862277

>  <SCORE.INTRA.VDW.0>
-3.53918

>  <SCORE.INTRA.norm>
-0.0751857

>  <SCORE.RESTR>
0

>  <SCORE.RESTR.CAVITY>
0

>  <SCORE.RESTR.norm>
0

>  <SCORE.SYSTEM>
0

>  <SCORE.SYSTEM.CONST>
0

>  <SCORE.SYSTEM.DIHEDRAL>
0

>  <SCORE.SYSTEM.SOLV>
0

>  <SCORE.SYSTEM.norm>
0

>  <SCORE.heavy>
34

>  <SCORE.norm>
-0.553703

>  <RMSD>
0.714

$$$$
ligand
 OpenBabel01301917533D
libRbt.so/2013.1/901 2013/11/27
 34 36  0  0  0  0  0  0  0  0999 V2000
   18.6004   27.9450   34.7683 C   0  0  2  0  0  0  0  0  0  0  0  0
   19.0298   27.5749   36.0824 O   0  0  0  0  0  0  0  0  0  0  0  0
   22.5944   27.9095   38.4454 C   0  0  2  0  0  0  0  0  0  0  0  0
   23.9959   27.8338   38.8799 N   0  0  0  0  0  0  0  0  0  0  0  0
   24.1888   30.7385   37.3209 C   0  0  2  0  0  0  0  0  0  0  0  0
   17.0279   28.0351   34.7761 C   0  0  2  0  0  0  0  0  0  0  0  0
   16.5637   29.0231   35.7632 N   0  0  0  0  0  0  0  0  0  0  0  0
   22.1547   26.4698   37.9946 C   0  0  0  0  0  0  0  0  0  0  0  0
   24.4869   31.8982   38.3512 C   0  0  2  0  0  0  0  0  0  0  0  0
   24.5061   31.3889   39.6736 O   0  0  0  0  0  0  0  0  0  0  0  0
   16.4103   26.6381   35.0857 C   0  0  1  0  0  0  0  0  0  0  0  0
   14.9728   26.7159   35.0940 O   0  0  0  0  0  0  0  0  0  0  0  0
   20.6522   26.5477   37.5490 C   0  0  2  0  0  0  0  0  0  0  0  0
   20.1669   25.2115   37.1003 N   0  0  0  0  0  0  0  0  0  0  0  0
   23.3597   32.9889   38.2024 C   0  0  1  0  0  0  0  0  0  0  0  0
   23.5606   34.0884   39.1676 N   0  0  0  0  0  0  0  0  0  0  0  0
   16.9208   25.6336   34.0262 C   0  0  2  0  0  0  0  0  0  0  0  0
   16.3549   24.3449   34.2854 O   0  0  0  0  0  0  0  0  0  0  0  0
   20.4713   27.5656   36.3826 C   0  0  2  0  0  0  0  0  0  0  0  0
   23.3738   33.5388   36.7410 C   0  0  1  0  0  0  0  0  0  0  0  0
   24.6368   34.1518   36.5033 O   0  0  0  0  0  0  0  0  0  0  0  0
   18.5087   25.5958   34.0806 C   0  0  2  0  0  0  0  0  0  0  0  0
   19.0735   26.9388   33.8206 O   0  0  0  0  0  0  0  0  0  0  0  0
   20.9776   28.9605   36.8404 C   0  0  2  0  0  0  0  0  0  0  0  0
   20.8305   29.8639   35.7469 O   0  0  0  0  0  0  0  0  0  0  0  0
   23.1644   32.3479   35.7514 C   0  0  0  0  0  0  0  0  0  0  0  0
   24.1865   31.2930   35.9529 O   0  0  0  0  0  0  0  0  0  0  0  0
   19.1208   24.6117   33.0427 C   0  0  2  0  0  0  0  0  0  0  0  0
   20.5483   24.6395   33.1510 O   0  0  0  0  0  0  0  0  0  0  0  0
   22.4751   28.9294   37.2339 C   0  0  1  0  0  0  0  0  0  0  0  0
   22.8489   30.2650   37.6710 O   0  0  0  0  0  0  0  0  0  0  0  0
   18.7565   24.9807   31.6215 C   0  0  0  0  0  0  0  0  0  0  0  0
   22.2901   34.5928   36.5097 C   0  0  0  0  0  0  0  0  0  0  0  0
   22.7077   33.8050   40.3479 C   0  0  0  0  0  0  0  0  0  0  0  0
  1  2  1  1  0  0  0
  1  6  1  0  0  0  0
  1 23  1  0  0  0  0
  3  4  1  6  0  0  0
  3  8  1  0  0  0  0
  3 30  1  0  0  0  0
  5  9  1  0  0  0  0
  5 27  1  0  0  0  0
  5 31  1  1  0  0  0
  6  7  1  1  0  0  0
  6 11  1  0  0  0  0
  8 13  1  0  0  0  0
  9 10  1  1  0  0  0
  9 15  1  0  0  0  0
 11 12  1  6  0  0  0
 11 17  1  0  0  0  0
 13 14  1  6  0  0  0
 13 19  1  0  0  0  0
 15 16  1  1  0  0  0
 15 20  1  0  0  0  0
 16 34  1  0  0  0  0
 17 18  1  1  0  0  0
 17 22  1  0  0  0  0
 19  2  1  1  0  0  0
 19 24  1  0  0  0  0
 20 21  1  6  0  0  0
 20 26  1  0  0  0  0
 20 33  1  0  0  0  0
 22 23  1  6  0  0  0
 22 28  1  0  0  0  0
 24 25  1  6  0  0  0
 24 30  1  0  0  0  0
 26 27  1  0  0  0  0
 28 29  1  6  0  0  0
 28 32  1  0  0  0  0
 30 31  1  1  0  0  0
M  END
>  <CHROM.1>
-173.37924119,-154.38988370,-96.26126464,179.77088551,101.35919827,-159.05786536
20.86641939,28.92275115,36.27406930,2.34229294,0.51301919,-3.08574833

>  <Name>
ligand

>  <RI>
0

>  <Rbt.Current_Directory>
/home/itssahil/PROJECTS/Mol_Feturizer/New_Systems/rnas/4p3s

>  <Rbt.Executable>
rbdock ($Id: //depot/dev/client3/rdock/2013.1/src/exe/rbdock.cxx#4 $)

>  <Rbt.Library>
libRbt.so (2013.1, Build901 2013/11/27)

>  <Rbt.Parameter_File>
/export/apps/rDock/src/rDock_2013.1_src/data/scripts/dock_solv.prm

>  <Rbt.Receptor>
prm/pocket_docking_3.prm

>  <SCORE>
-18.7406

>  <SCORE.INTER>
-16.6408

>  <SCORE.INTER.CONST>
1

>  <SCORE.INTER.POLAR>
0

>  <SCORE.INTER.ROT>
6

>  <SCORE.INTER.SOLV>
22.4774

>  <SCORE.INTER.VDW>
-26.1863

>  <SCORE.INTER.norm>
-0.489435

>  <SCORE.INTRA>
-2.09982

>  <SCORE.INTRA.DIHEDRAL>
-4.46643

>  <SCORE.INTRA.DIHEDRAL.0>
15.8194

>  <SCORE.INTRA.POLAR>
0

>  <SCORE.INTRA.POLAR.0>
0

>  <SCORE.INTRA.REPUL>
0

>  <SCORE.INTRA.REPUL.0>
0

>  <SCORE.INTRA.SOLV>
0.226747

>  <SCORE.INTRA.SOLV.lig_0>
-71.9159

>  <SCORE.INTRA.VDW>
0.0200277

>  <SCORE.INTRA.VDW.0>
-3.53918

>  <SCORE.INTRA.norm>
-0.0617593

>  <SCORE.RESTR>
0

>  <SCORE.RESTR.CAVITY>
0

>  <SCORE.RESTR.norm>
0

>  <SCORE.SYSTEM>
0

>  <SCORE.SYSTEM.CONST>
0

>  <SCORE.SYSTEM.DIHEDRAL>
0

>  <SCORE.SYSTEM.SOLV>
0

>  <SCORE.SYSTEM.norm>
0

>  <SCORE.heavy>
34

>  <SCORE.norm>
-0.551194

>  <RMSD>
0.716

$$$$
ligand
 OpenBabel01301917533D
libRbt.so/2013.1/901 2013/11/27
 34 36  0  0  0  0  0  0  0  0999 V2000
   18.4415   28.3130   35.1562 C   0  0  2  0  0  0  0  0  0  0  0  0
   18.9615   27.7457   36.3629 O   0  0  0  0  0  0  0  0  0  0  0  0
   22.6549   28.0681   38.5210 C   0  0  2  0  0  0  0  0  0  0  0  0
   24.0801   27.9987   38.8711 N   0  0  0  0  0  0  0  0  0  0  0  0
   24.1875   30.9030   37.4477 C   0  0  2  0  0  0  0  0  0  0  0  0
   16.8703   28.3329   35.2639 C   0  0  2  0  0  0  0  0  0  0  0  0
   16.4340   29.1199   36.4286 N   0  0  0  0  0  0  0  0  0  0  0  0
   22.2039   26.6339   38.0640 C   0  0  0  0  0  0  0  0  0  0  0  0
   24.4936   32.0513   38.4884 C   0  0  2  0  0  0  0  0  0  0  0  0
   24.4992   31.5318   39.8070 O   0  0  0  0  0  0  0  0  0  0  0  0
   16.3191   26.8786   35.3635 C   0  0  1  0  0  0  0  0  0  0  0  0
   14.8830   26.8921   35.4623 O   0  0  0  0  0  0  0  0  0  0  0  0
   20.6771   26.7047   37.7087 C   0  0  2  0  0  0  0  0  0  0  0  0
   20.1798   25.3733   37.2588 N   0  0  0  0  0  0  0  0  0  0  0  0
   23.3803   33.1564   38.3415 C   0  0  1  0  0  0  0  0  0  0  0  0
   23.5889   34.2462   39.3161 N   0  0  0  0  0  0  0  0  0  0  0  0
   16.7977   26.0896   34.1223 C   0  0  2  0  0  0  0  0  0  0  0  0
   16.2915   24.7526   34.1880 O   0  0  0  0  0  0  0  0  0  0  0  0
   20.4182   27.7460   36.5782 C   0  0  2  0  0  0  0  0  0  0  0  0
   23.4094   33.7171   36.8844 C   0  0  1  0  0  0  0  0  0  0  0  0
   24.6809   34.3166   36.6584 O   0  0  0  0  0  0  0  0  0  0  0  0
   18.3865   26.1113   34.0839 C   0  0  2  0  0  0  0  0  0  0  0  0
   18.8898   27.5018   34.0267 O   0  0  0  0  0  0  0  0  0  0  0  0
   20.9364   29.1360   37.0373 C   0  0  2  0  0  0  0  0  0  0  0  0
   20.7165   30.0617   35.9750 O   0  0  0  0  0  0  0  0  0  0  0  0
   23.1914   32.5362   35.8847 C   0  0  0  0  0  0  0  0  0  0  0  0
   24.1996   31.4676   36.0839 O   0  0  0  0  0  0  0  0  0  0  0  0
   18.9671   25.3431   32.8620 C   0  0  2  0  0  0  0  0  0  0  0  0
   18.2260   25.6945   31.6883 O   0  0  0  0  0  0  0  0  0  0  0  0
   22.4547   29.1132   37.3420 C   0  0  1  0  0  0  0  0  0  0  0  0
   22.8401   30.4430   37.7867 O   0  0  0  0  0  0  0  0  0  0  0  0
   18.8774   23.8429   33.0350 C   0  0  0  0  0  0  0  0  0  0  0  0
   22.3397   34.7857   36.6550 C   0  0  0  0  0  0  0  0  0  0  0  0
   22.7709   33.9339   40.5137 C   0  0  0  0  0  0  0  0  0  0  0  0
  1  2  1  1  0  0  0
  1  6  1  0  0  0  0
  1 23  1  0  0  0  0
  3  4  1  6  0  0  0
  3  8  1  0  0  0  0
  3 30  1  0  0  0  0
  5  9  1  0  0  0  0
  5 27  1  0  0  0  0
  5 31  1  1  0  0  0
  6  7  1  1  0  0  0
  6 11  1  0  0  0  0
  8 13  1  0  0  0  0
  9 10  1  1  0  0  0
  9 15  1  0  0  0  0
 11 12  1  6  0  0  0
 11 17  1  0  0  0  0
 13 14  1  6  0  0  0
 13 19  1  0  0  0  0
 15 16  1  1  0  0  0
 15 20  1  0  0  0  0
 16 34  1  0  0  0  0
 17 18  1  1  0  0  0
 17 22  1  0  0  0  0
 19  2  1  1  0  0  0
 19 24  1  0  0  0  0
 20 21  1  6  0  0  0
 20 26  1  0  0  0  0
 20 33  1  0  0  0  0
 22 23  1  6  0  0  0
 22 28  1  0  0  0  0
 24 25  1  6  0  0  0
 24 30  1  0  0  0  0
 26 27  1  0  0  0  0
 28 29  1  6  0  0  0
 28 32  1  0  0  0  0
 30 31  1  1  0  0  0
M  END
>  <CHROM.1>
-173.46688608,-162.97105318,-93.85519078,44.52484518,97.26760138,-158.82413672
20.76218287,29.14214792,36.42654118,2.40072229,0.54887698,3.13674696

>  <Name>
ligand

>  <RI>
0

>  <Rbt.Current_Directory>
/home/itssahil/PROJECTS/Mol_Feturizer/New_Systems/rnas/4p3s

>  <Rbt.Executable>
rbdock ($Id: //depot/dev/client3/rdock/2013.1/src/exe/rbdock.cxx#4 $)

>  <Rbt.Library>
libRbt.so (2013.1, Build901 2013/11/27)

>  <Rbt.Parameter_File>
/export/apps/rDock/src/rDock_2013.1_src/data/scripts/dock_solv.prm

>  <Rbt.Receptor>
prm/pocket_docking_2.prm

>  <SCORE>
-18.9198

>  <SCORE.INTER>
-16.0562

>  <SCORE.INTER.CONST>
1

>  <SCORE.INTER.POLAR>
0

>  <SCORE.INTER.ROT>
6

>  <SCORE.INTER.SOLV>
21.0159

>  <SCORE.INTER.VDW>
-25.3094

>  <SCORE.INTER.norm>
-0.47224

>  <SCORE.INTRA>
-2.86362

>  <SCORE.INTRA.DIHEDRAL>
-5.8012

>  <SCORE.INTRA.DIHEDRAL.0>
15.8194

>  <SCORE.INTRA.POLAR>
0

>  <SCORE.INTRA.POLAR.0>
0

>  <SCORE.INTRA.REPUL>
0

>  <SCORE.INTRA.REPUL.0>
0

>  <SCORE.INTRA.SOLV>
-0.114695

>  <SCORE.INTRA.SOLV.lig_0>
-71.9159

>  <SCORE.INTRA.VDW>
0.0943327

>  <SCORE.INTRA.VDW.0>
-3.53918

>  <SCORE.INTRA.norm>
-0.084224

>  <SCORE.RESTR>
0

>  <SCORE.RESTR.CAVITY>
0

>  <SCORE.RESTR.norm>
0

>  <SCORE.SYSTEM>
0

>  <SCORE.SYSTEM.CONST>
0

>  <SCORE.SYSTEM.DIHEDRAL>
0

>  <SCORE.SYSTEM.SOLV>
0

>  <SCORE.SYSTEM.norm>
0

>  <SCORE.heavy>
34

>  <SCORE.norm>
-0.556464

>  <RMSD>
0.718

$$$$
ligand
 OpenBabel01301917533D
libRbt.so/2013.1/901 2013/11/27
 34 36  0  0  0  0  0  0  0  0999 V2000
   18.4544   28.3301   35.1788 C   0  0  2  0  0  0  0  0  0  0  0  0
   18.9695   27.7473   36.3802 O   0  0  0  0  0  0  0  0  0  0  0  0
   22.6531   28.0975   38.5505 C   0  0  2  0  0  0  0  0  0  0  0  0
   24.0763   28.0302   38.9090 N   0  0  0  0  0  0  0  0  0  0  0  0
   24.1937   30.9145   37.4205 C   0  0  2  0  0  0  0  0  0  0  0  0
   16.8833   28.3605   35.2859 C   0  0  2  0  0  0  0  0  0  0  0  0
   16.4521   29.1393   36.4579 N   0  0  0  0  0  0  0  0  0  0  0  0
   22.2002   26.6567   38.1169 C   0  0  0  0  0  0  0  0  0  0  0  0
   24.5187   32.0556   38.4634 C   0  0  2  0  0  0  0  0  0  0  0  0
   24.5398   31.5287   39.7789 O   0  0  0  0  0  0  0  0  0  0  0  0
   16.3213   26.9094   35.3710 C   0  0  1  0  0  0  0  0  0  0  0  0
   14.8853   26.9326   35.4692 O   0  0  0  0  0  0  0  0  0  0  0  0
   20.6754   26.7255   37.7528 C   0  0  2  0  0  0  0  0  0  0  0  0
   20.1763   25.3878   37.3242 N   0  0  0  0  0  0  0  0  0  0  0  0
   23.4084   33.1663   38.3377 C   0  0  1  0  0  0  0  0  0  0  0  0
   23.6348   34.2497   39.3155 N   0  0  0  0  0  0  0  0  0  0  0  0
   16.7949   26.1289   34.1226 C   0  0  2  0  0  0  0  0  0  0  0  0
   16.2789   24.7951   34.1750 O   0  0  0  0  0  0  0  0  0  0  0  0
   20.4250   27.7473   36.6027 C   0  0  2  0  0  0  0  0  0  0  0  0
   23.4203   33.7350   36.8835 C   0  0  1  0  0  0  0  0  0  0  0  0
   24.6913   34.3304   36.6437 O   0  0  0  0  0  0  0  0  0  0  0  0
   18.3838   26.1393   34.0852 C   0  0  2  0  0  0  0  0  0  0  0  0
   18.8973   27.5266   34.0418 O   0  0  0  0  0  0  0  0  0  0  0  0
   20.9451   29.1437   37.0396 C   0  0  2  0  0  0  0  0  0  0  0  0
   20.7332   30.0510   35.9599 O   0  0  0  0  0  0  0  0  0  0  0  0
   23.1837   32.5607   35.8802 C   0  0  0  0  0  0  0  0  0  0  0  0
   24.1899   31.4868   36.0599 O   0  0  0  0  0  0  0  0  0  0  0  0
   18.9595   25.3788   32.8562 C   0  0  2  0  0  0  0  0  0  0  0  0
   18.2481   25.7772   31.6792 O   0  0  0  0  0  0  0  0  0  0  0  0
   22.4618   29.1220   37.3521 C   0  0  1  0  0  0  0  0  0  0  0  0
   22.8490   30.4583   37.7751 O   0  0  0  0  0  0  0  0  0  0  0  0
   18.8208   23.8789   32.9962 C   0  0  0  0  0  0  0  0  0  0  0  0
   22.3522   34.8095   36.6745 C   0  0  0  0  0  0  0  0  0  0  0  0
   22.8889   33.8982   40.5487 C   0  0  0  0  0  0  0  0  0  0  0  0
  1  2  1  1  0  0  0
  1  6  1  0  0  0  0
  1 23  1  0  0  0  0
  3  4  1  6  0  0  0
  3  8  1  0  0  0  0
  3 30  1  0  0  0  0
  5  9  1  0  0  0  0
  5 27  1  0  0  0  0
  5 31  1  1  0  0  0
  6  7  1  1  0  0  0
  6 11  1  0  0  0  0
  8 13  1  0  0  0  0
  9 10  1  1  0  0  0
  9 15  1  0  0  0  0
 11 12  1  6  0  0  0
 11 17  1  0  0  0  0
 13 14  1  6  0  0  0
 13 19  1  0  0  0  0
 15 16  1  1  0  0  0
 15 20  1  0  0  0  0
 16 34  1  0  0  0  0
 17 18  1  1  0  0  0
 17 22  1  0  0  0  0
 19  2  1  1  0  0  0
 19 24  1  0  0  0  0
 20 21  1  6  0  0  0
 20 26  1  0  0  0  0
 20 33  1  0  0  0  0
 22 23  1  6  0  0  0
 22 28  1  0  0  0  0
 24 25  1  6  0  0  0
 24 30  1  0  0  0  0
 26 27  1  0  0  0  0
 28 29  1  6  0  0  0
 28 32  1  0  0  0  0
 30 31  1  1  0  0  0
M  END
>  <CHROM.1>
-172.84271962,-164.79124356,-90.91523273,46.24827573,97.99183628,-157.57589429
20.77168811,29.16153369,36.43246277,2.42310109,0.57226051,3.10236074

>  <Name>
ligand

>  <RI>
0

>  <Rbt.Current_Directory>
/home/itssahil/PROJECTS/Mol_Feturizer/New_Systems/rnas/4p3s

>  <Rbt.Executable>
rbdock ($Id: //depot/dev/client3/rdock/2013.1/src/exe/rbdock.cxx#4 $)

>  <Rbt.Library>
libRbt.so (2013.1, Build901 2013/11/27)

>  <Rbt.Parameter_File>
/export/apps/rDock/src/rDock_2013.1_src/data/scripts/dock_solv.prm

>  <Rbt.Receptor>
prm/pocket_docking_2.prm

>  <SCORE>
-18.9441

>  <SCORE.INTER>
-16.2043

>  <SCORE.INTER.CONST>
1

>  <SCORE.INTER.POLAR>
0

>  <SCORE.INTER.ROT>
6

>  <SCORE.INTER.SOLV>
21.0976

>  <SCORE.INTER.VDW>
-25.4354

>  <SCORE.INTER.norm>
-0.476596

>  <SCORE.INTRA>
-2.73996

>  <SCORE.INTRA.DIHEDRAL>
-5.93724

>  <SCORE.INTRA.DIHEDRAL.0>
15.8194

>  <SCORE.INTRA.POLAR>
0

>  <SCORE.INTRA.POLAR.0>
0

>  <SCORE.INTRA.REPUL>
0

>  <SCORE.INTRA.REPUL.0>
0

>  <SCORE.INTRA.SOLV>
-0.230249

>  <SCORE.INTRA.SOLV.lig_0>
-71.9159

>  <SCORE.INTRA.VDW>
0.343782

>  <SCORE.INTRA.VDW.0>
-3.53918

>  <SCORE.INTRA.norm>
-0.0805871

>  <SCORE.RESTR>
0.000131652

>  <SCORE.RESTR.CAVITY>
0.000131652

>  <SCORE.RESTR.norm>
3.87212e-06

>  <SCORE.SYSTEM>
0

>  <SCORE.SYSTEM.CONST>
0

>  <SCORE.SYSTEM.DIHEDRAL>
0

>  <SCORE.SYSTEM.SOLV>
0

>  <SCORE.SYSTEM.norm>
0

>  <SCORE.heavy>
34

>  <SCORE.norm>
-0.55718

>  <RMSD>
0.720

$$$$
ligand
 OpenBabel01301917533D
libRbt.so/2013.1/901 2013/11/27
 34 36  0  0  0  0  0  0  0  0999 V2000
   18.3435   28.3088   35.0362 C   0  0  2  0  0  0  0  0  0  0  0  0
   18.8523   27.7813   36.2655 O   0  0  0  0  0  0  0  0  0  0  0  0
   22.5478   28.0460   38.4278 C   0  0  2  0  0  0  0  0  0  0  0  0
   23.9717   27.9568   38.7787 N   0  0  0  0  0  0  0  0  0  0  0  0
   24.1256   30.8565   37.3922 C   0  0  2  0  0  0  0  0  0  0  0  0
   16.8087   28.6041   35.2301 C   0  0  2  0  0  0  0  0  0  0  0  0
   16.5929   29.5625   36.3261 N   0  0  0  0  0  0  0  0  0  0  0  0
   22.0791   26.6200   37.9632 C   0  0  0  0  0  0  0  0  0  0  0  0
   24.4516   31.9651   38.4693 C   0  0  2  0  0  0  0  0  0  0  0  0
   24.4314   31.4068   39.7718 O   0  0  0  0  0  0  0  0  0  0  0  0
   16.0378   27.2803   35.5169 C   0  0  1  0  0  0  0  0  0  0  0  0
   14.6342   27.5458   35.6950 O   0  0  0  0  0  0  0  0  0  0  0  0
   20.5536   26.7119   37.6073 C   0  0  2  0  0  0  0  0  0  0  0  0
   20.0398   25.3892   37.1503 N   0  0  0  0  0  0  0  0  0  0  0  0
   23.3687   33.1028   38.3460 C   0  0  1  0  0  0  0  0  0  0  0  0
   23.5963   34.1574   39.3544 N   0  0  0  0  0  0  0  0  0  0  0  0
   16.2892   26.3054   34.3428 C   0  0  2  0  0  0  0  0  0  0  0  0
   15.5791   25.0859   34.5808 O   0  0  0  0  0  0  0  0  0  0  0  0
   20.3087   27.7621   36.4819 C   0  0  2  0  0  0  0  0  0  0  0  0
   23.4258   33.7054   36.9066 C   0  0  1  0  0  0  0  0  0  0  0  0
   24.7145   34.2780   36.7094 O   0  0  0  0  0  0  0  0  0  0  0  0
   17.8532   26.0547   34.2122 C   0  0  2  0  0  0  0  0  0  0  0  0
   18.5697   27.3281   33.9771 O   0  0  0  0  0  0  0  0  0  0  0  0
   20.8441   29.1431   36.9484 C   0  0  2  0  0  0  0  0  0  0  0  0
   20.6368   30.0769   35.8907 O   0  0  0  0  0  0  0  0  0  0  0  0
   23.1866   32.5608   35.8702 C   0  0  0  0  0  0  0  0  0  0  0  0
   24.1650   31.4608   36.0460 O   0  0  0  0  0  0  0  0  0  0  0  0
   18.2098   25.0848   33.0492 C   0  0  2  0  0  0  0  0  0  0  0  0
   17.4939   23.8570   33.2226 O   0  0  0  0  0  0  0  0  0  0  0  0
   22.3617   29.0995   37.2540 C   0  0  1  0  0  0  0  0  0  0  0  0
   22.7636   30.4220   37.7058 O   0  0  0  0  0  0  0  0  0  0  0  0
   19.6865   24.7588   33.0096 C   0  0  0  0  0  0  0  0  0  0  0  0
   22.3863   34.8080   36.7000 C   0  0  0  0  0  0  0  0  0  0  0  0
   22.7195   33.8604   40.5137 C   0  0  0  0  0  0  0  0  0  0  0  0
  1  2  1  1  0  0  0
  1  6  1  0  0  0  0
  1 23  1  0  0  0  0
  3  4  1  6  0  0  0
  3  8  1  0  0  0  0
  3 30  1  0  0  0  0
  5  9  1  0  0  0  0
  5 27  1  0  0  0  0
  5 31  1  1  0  0  0
  6  7  1  1  0  0  0
  6 11  1  0  0  0  0
  8 13  1  0  0  0  0
  9 10  1  1  0  0  0
  9 15  1  0  0  0  0
 11 12  1  6  0  0  0
 11 17  1  0  0  0  0
 13 14  1  6  0  0  0
 13 19  1  0  0  0  0
 15 16  1  1  0  0  0
 15 20  1  0  0  0  0
 16 34  1  0  0  0  0
 17 18  1  1  0  0  0
 17 22  1  0  0  0  0
 19  2  1  1  0  0  0
 19 24  1  0  0  0  0
 20 21  1  6  0  0  0
 20 26  1  0  0  0  0
 20 33  1  0  0  0  0
 22 23  1  6  0  0  0
 22 28  1  0  0  0  0
 24 25  1  6  0  0  0
 24 30  1  0  0  0  0
 26 27  1  0  0  0  0
 28 29  1  1  0  0  0
 28 32  1  0  0  0  0
 30 31  1  1  0  0  0
M  END
>  <CHROM.1>
-163.55823283,-160.30506138,-96.03556168,-55.48872231,96.13006877,-156.96405788
20.62618256,29.15018143,36.47702116,2.36071627,0.39969741,-3.03179243

>  <Name>
ligand

>  <RI>
0

>  <Rbt.Current_Directory>
/home/itssahil/PROJECTS/Mol_Feturizer/New_Systems/rnas/4p3s

>  <Rbt.Executable>
rbdock ($Id: //depot/dev/client3/rdock/2013.1/src/exe/rbdock.cxx#4 $)

>  <Rbt.Library>
libRbt.so (2013.1, Build901 2013/11/27)

>  <Rbt.Parameter_File>
/export/apps/rDock/src/rDock_2013.1_src/data/scripts/dock_solv.prm

>  <Rbt.Receptor>
prm/pocket_docking_2.prm

>  <SCORE>
-18.8983

>  <SCORE.INTER>
-16.4836

>  <SCORE.INTER.CONST>
1

>  <SCORE.INTER.POLAR>
0

>  <SCORE.INTER.ROT>
6

>  <SCORE.INTER.SOLV>
19.4291

>  <SCORE.INTER.VDW>
-25.0654

>  <SCORE.INTER.norm>
-0.484812

>  <SCORE.INTRA>
-2.41473

>  <SCORE.INTRA.DIHEDRAL>
-4.88692

>  <SCORE.INTRA.DIHEDRAL.0>
15.8194

>  <SCORE.INTRA.POLAR>
0

>  <SCORE.INTRA.POLAR.0>
0

>  <SCORE.INTRA.REPUL>
0

>  <SCORE.INTRA.REPUL.0>
0

>  <SCORE.INTRA.SOLV>
0.469396

>  <SCORE.INTRA.SOLV.lig_0>
-71.9159

>  <SCORE.INTRA.VDW>
-0.205965

>  <SCORE.INTRA.VDW.0>
-3.53918

>  <SCORE.INTRA.norm>
-0.0710214

>  <SCORE.RESTR>
0

>  <SCORE.RESTR.CAVITY>
0

>  <SCORE.RESTR.norm>
0

>  <SCORE.SYSTEM>
0

>  <SCORE.SYSTEM.CONST>
0

>  <SCORE.SYSTEM.DIHEDRAL>
0

>  <SCORE.SYSTEM.SOLV>
0

>  <SCORE.SYSTEM.norm>
0

>  <SCORE.heavy>
34

>  <SCORE.norm>
-0.555833

>  <RMSD>
0.723

$$$$
ligand
 OpenBabel01301917533D
libRbt.so/2013.1/901 2013/11/27
 34 36  0  0  0  0  0  0  0  0999 V2000
   18.3264   28.2986   34.9632 C   0  0  2  0  0  0  0  0  0  0  0  0
   18.8372   27.7970   36.2024 O   0  0  0  0  0  0  0  0  0  0  0  0
   22.5399   28.0334   38.3556 C   0  0  2  0  0  0  0  0  0  0  0  0
   23.9650   27.9398   38.7005 N   0  0  0  0  0  0  0  0  0  0  0  0
   24.1176   30.8532   37.3624 C   0  0  2  0  0  0  0  0  0  0  0  0
   16.7904   28.5920   35.1516 C   0  0  2  0  0  0  0  0  0  0  0  0
   16.5713   29.5706   36.2288 N   0  0  0  0  0  0  0  0  0  0  0  0
   22.0699   26.6136   37.8735 C   0  0  0  0  0  0  0  0  0  0  0  0
   24.4394   31.9527   38.4499 C   0  0  2  0  0  0  0  0  0  0  0  0
   24.4108   31.3844   39.7479 O   0  0  0  0  0  0  0  0  0  0  0  0
   16.0245   27.2711   35.4642 C   0  0  1  0  0  0  0  0  0  0  0  0
   14.6199   27.5348   35.6374 O   0  0  0  0  0  0  0  0  0  0  0  0
   20.5432   26.7100   37.5239 C   0  0  2  0  0  0  0  0  0  0  0  0
   20.0281   25.3935   37.0510 N   0  0  0  0  0  0  0  0  0  0  0  0
   23.3595   33.0935   38.3293 C   0  0  1  0  0  0  0  0  0  0  0  0
   23.5832   34.1398   39.3472 N   0  0  0  0  0  0  0  0  0  0  0  0
   16.2794   26.2746   34.3092 C   0  0  2  0  0  0  0  0  0  0  0  0
   15.5739   25.0573   34.5709 O   0  0  0  0  0  0  0  0  0  0  0  0
   20.2943   27.7752   36.4136 C   0  0  2  0  0  0  0  0  0  0  0  0
   23.4259   33.7072   36.8950 C   0  0  1  0  0  0  0  0  0  0  0  0
   24.7168   34.2787   36.7097 O   0  0  0  0  0  0  0  0  0  0  0  0
   17.8443   26.0272   34.1832 C   0  0  2  0  0  0  0  0  0  0  0  0
   18.5560   27.2984   33.9232 O   0  0  0  0  0  0  0  0  0  0  0  0
   20.8311   29.1499   36.8968 C   0  0  2  0  0  0  0  0  0  0  0  0
   20.6201   30.0977   35.8524 O   0  0  0  0  0  0  0  0  0  0  0  0
   23.1905   32.5711   35.8483 C   0  0  0  0  0  0  0  0  0  0  0  0
   24.1658   31.4679   36.0212 O   0  0  0  0  0  0  0  0  0  0  0  0
   18.2043   25.0363   33.0391 C   0  0  2  0  0  0  0  0  0  0  0  0
   17.5223   23.7963   33.2569 O   0  0  0  0  0  0  0  0  0  0  0  0
   22.3498   29.1025   37.1967 C   0  0  1  0  0  0  0  0  0  0  0  0
   22.7530   30.4190   37.6648 O   0  0  0  0  0  0  0  0  0  0  0  0
   19.6877   24.7454   32.9809 C   0  0  0  0  0  0  0  0  0  0  0  0
   22.3897   34.8133   36.6911 C   0  0  0  0  0  0  0  0  0  0  0  0
   22.7575   33.7930   40.5299 C   0  0  0  0  0  0  0  0  0  0  0  0
  1  2  1  1  0  0  0
  1  6  1  0  0  0  0
  1 23  1  0  0  0  0
  3  4  1  6  0  0  0
  3  8  1  0  0  0  0
  3 30  1  0  0  0  0
  5  9  1  0  0  0  0
  5 27  1  0  0  0  0
  5 31  1  1  0  0  0
  6  7  1  1  0  0  0
  6 11  1  0  0  0  0
  8 13  1  0  0  0  0
  9 10  1  1  0  0  0
  9 15  1  0  0  0  0
 11 12  1  6  0  0  0
 11 17  1  0  0  0  0
 13 14  1  6  0  0  0
 13 19  1  0  0  0  0
 15 16  1  1  0  0  0
 15 20  1  0  0  0  0
 16 34  1  0  0  0  0
 17 18  1  1  0  0  0
 17 22  1  0  0  0  0
 19  2  1  1  0  0  0
 19 24  1  0  0  0  0
 20 21  1  6  0  0  0
 20 26  1  0  0  0  0
 20 33  1  0  0  0  0
 22 23  1  6  0  0  0
 22 28  1  0  0  0  0
 24 25  1  6  0  0  0
 24 30  1  0  0  0  0
 26 27  1  0  0  0  0
 28 29  1  1  0  0  0
 28 32  1  0  0  0  0
 30 31  1  1  0  0  0
M  END
>  <CHROM.1>
-164.14832175,-158.19280395,-92.86219214,-57.10395164,95.62025953,-157.15869295
20.61937991,29.13948975,36.43727007,2.35671787,0.39334825,-3.02317203

>  <Name>
ligand

>  <RI>
0

>  <Rbt.Current_Directory>
/home/itssahil/PROJECTS/Mol_Feturizer/New_Systems/rnas/4p3s

>  <Rbt.Executable>
rbdock ($Id: //depot/dev/client3/rdock/2013.1/src/exe/rbdock.cxx#4 $)

>  <Rbt.Library>
libRbt.so (2013.1, Build901 2013/11/27)

>  <Rbt.Parameter_File>
/export/apps/rDock/src/rDock_2013.1_src/data/scripts/dock_solv.prm

>  <Rbt.Receptor>
prm/pocket_docking_2.prm

>  <SCORE>
-18.9434

>  <SCORE.INTER>
-16.6921

>  <SCORE.INTER.CONST>
1

>  <SCORE.INTER.POLAR>
0

>  <SCORE.INTER.ROT>
6

>  <SCORE.INTER.SOLV>
19.4766

>  <SCORE.INTER.VDW>
-25.2203

>  <SCORE.INTER.norm>
-0.490943

>  <SCORE.INTRA>
-2.25129

>  <SCORE.INTRA.DIHEDRAL>
-4.88547

>  <SCORE.INTRA.DIHEDRAL.0>
15.8194

>  <SCORE.INTRA.POLAR>
0

>  <SCORE.INTRA.POLAR.0>
0

>  <SCORE.INTRA.REPUL>
0

>  <SCORE.INTRA.REPUL.0>
0

>  <SCORE.INTRA.SOLV>
0.619106

>  <SCORE.INTRA.SOLV.lig_0>
-71.9159

>  <SCORE.INTRA.VDW>
-0.118102

>  <SCORE.INTRA.VDW.0>
-3.53918

>  <SCORE.INTRA.norm>
-0.0662143

>  <SCORE.RESTR>
0

>  <SCORE.RESTR.CAVITY>
0

>  <SCORE.RESTR.norm>
0

>  <SCORE.SYSTEM>
0

>  <SCORE.SYSTEM.CONST>
0

>  <SCORE.SYSTEM.DIHEDRAL>
0

>  <SCORE.SYSTEM.SOLV>
0

>  <SCORE.SYSTEM.norm>
0

>  <SCORE.heavy>
34

>  <SCORE.norm>
-0.557158

>  <RMSD>
0.724

$$$$
ligand
 OpenBabel01301917533D
libRbt.so/2013.1/901 2013/11/27
 34 36  0  0  0  0  0  0  0  0999 V2000
   18.4407   28.3341   35.1899 C   0  0  2  0  0  0  0  0  0  0  0  0
   18.9608   27.7559   36.3913 O   0  0  0  0  0  0  0  0  0  0  0  0
   22.6602   28.0714   38.5400 C   0  0  2  0  0  0  0  0  0  0  0  0
   24.0857   27.9961   38.8879 N   0  0  0  0  0  0  0  0  0  0  0  0
   24.2040   30.8935   37.4368 C   0  0  2  0  0  0  0  0  0  0  0  0
   16.8695   28.3544   35.2987 C   0  0  2  0  0  0  0  0  0  0  0  0
   16.4345   29.1316   36.4703 N   0  0  0  0  0  0  0  0  0  0  0  0
   22.2001   26.6368   38.0936 C   0  0  0  0  0  0  0  0  0  0  0  0
   24.5246   32.0429   38.4719 C   0  0  2  0  0  0  0  0  0  0  0  0
   24.5400   31.5266   39.7916 O   0  0  0  0  0  0  0  0  0  0  0  0
   16.3171   26.8997   35.3859 C   0  0  1  0  0  0  0  0  0  0  0  0
   14.8811   26.9137   35.4856 O   0  0  0  0  0  0  0  0  0  0  0  0
   20.6730   26.7141   37.7408 C   0  0  2  0  0  0  0  0  0  0  0  0
   20.1671   25.3826   37.3009 N   0  0  0  0  0  0  0  0  0  0  0  0
   23.4148   33.1526   38.3326 C   0  0  1  0  0  0  0  0  0  0  0  0
   23.6370   34.2437   39.3026 N   0  0  0  0  0  0  0  0  0  0  0  0
   16.7944   26.1211   34.1377 C   0  0  2  0  0  0  0  0  0  0  0  0
   16.2871   24.7841   34.1920 O   0  0  0  0  0  0  0  0  0  0  0  0
   20.4179   27.7492   36.6038 C   0  0  2  0  0  0  0  0  0  0  0  0
   23.4328   33.7096   36.8739 C   0  0  1  0  0  0  0  0  0  0  0  0
   24.7048   34.3031   36.6348 O   0  0  0  0  0  0  0  0  0  0  0  0
   18.3831   26.1418   34.0985 C   0  0  2  0  0  0  0  0  0  0  0  0
   18.8876   27.5324   34.0532 O   0  0  0  0  0  0  0  0  0  0  0  0
   20.9451   29.1392   37.0525 C   0  0  2  0  0  0  0  0  0  0  0  0
   20.7284   30.0590   35.9844 O   0  0  0  0  0  0  0  0  0  0  0  0
   23.2005   32.5273   35.8791 C   0  0  0  0  0  0  0  0  0  0  0  0
   24.2059   31.4548   36.0717 O   0  0  0  0  0  0  0  0  0  0  0  0
   18.9624   25.3838   32.8697 C   0  0  2  0  0  0  0  0  0  0  0  0
   18.2535   25.7837   31.6916 O   0  0  0  0  0  0  0  0  0  0  0  0
   22.4638   29.1097   37.3543 C   0  0  1  0  0  0  0  0  0  0  0  0
   22.8578   30.4401   37.7893 O   0  0  0  0  0  0  0  0  0  0  0  0
   18.8246   23.8836   33.0068 C   0  0  0  0  0  0  0  0  0  0  0  0
   22.3657   34.7823   36.6517 C   0  0  0  0  0  0  0  0  0  0  0  0
   22.9421   33.8699   40.5588 C   0  0  0  0  0  0  0  0  0  0  0  0
  1  2  1  1  0  0  0
  1  6  1  0  0  0  0
  1 23  1  0  0  0  0
  3  4  1  6  0  0  0
  3  8  1  0  0  0  0
  3 30  1  0  0  0  0
  5  9  1  0  0  0  0
  5 27  1  0  0  0  0
  5 31  1  1  0  0  0
  6  7  1  1  0  0  0
  6 11  1  0  0  0  0
  8 13  1  0  0  0  0
  9 10  1  1  0  0  0
  9 15  1  0  0  0  0
 11 12  1  6  0  0  0
 11 17  1  0  0  0  0
 13 14  1  6  0  0  0
 13 19  1  0  0  0  0
 15 16  1  1  0  0  0
 15 20  1  0  0  0  0
 16 34  1  0  0  0  0
 17 18  1  1  0  0  0
 17 22  1  0  0  0  0
 19  2  1  1  0  0  0
 19 24  1  0  0  0  0
 20 21  1  6  0  0  0
 20 26  1  0  0  0  0
 20 33  1  0  0  0  0
 22 23  1  6  0  0  0
 22 28  1  0  0  0  0
 24 25  1  6  0  0  0
 24 30  1  0  0  0  0
 26 27  1  0  0  0  0
 28 29  1  6  0  0  0
 28 32  1  0  0  0  0
 30 31  1  1  0  0  0
M  END
>  <CHROM.1>
-173.66230701,-163.79313474,-88.12783672,46.66136571,97.66908369,-158.67033505
20.77485051,29.15055754,36.43673550,2.42264659,0.56594243,3.10665007

>  <Name>
ligand

>  <RI>
0

>  <Rbt.Current_Directory>
/home/itssahil/PROJECTS/Mol_Feturizer/New_Systems/rnas/4p3s

>  <Rbt.Executable>
rbdock ($Id: //depot/dev/client3/rdock/2013.1/src/exe/rbdock.cxx#4 $)

>  <Rbt.Library>
libRbt.so (2013.1, Build901 2013/11/27)

>  <Rbt.Parameter_File>
/export/apps/rDock/src/rDock_2013.1_src/data/scripts/dock_solv.prm

>  <Rbt.Receptor>
prm/pocket_docking_2.prm

>  <SCORE>
-18.8622

>  <SCORE.INTER>
-16.1779

>  <SCORE.INTER.CONST>
1

>  <SCORE.INTER.POLAR>
0

>  <SCORE.INTER.ROT>
6

>  <SCORE.INTER.SOLV>
21.0878

>  <SCORE.INTER.VDW>
-25.4145

>  <SCORE.INTER.norm>
-0.47582

>  <SCORE.INTRA>
-2.68431

>  <SCORE.INTRA.DIHEDRAL>
-6.21896

>  <SCORE.INTRA.DIHEDRAL.0>
15.8194

>  <SCORE.INTRA.POLAR>
0

>  <SCORE.INTRA.POLAR.0>
0

>  <SCORE.INTRA.REPUL>
0

>  <SCORE.INTRA.REPUL.0>
0

>  <SCORE.INTRA.SOLV>
-0.189372

>  <SCORE.INTRA.SOLV.lig_0>
-71.9159

>  <SCORE.INTRA.VDW>
0.519855

>  <SCORE.INTRA.VDW.0>
-3.53918

>  <SCORE.INTRA.norm>
-0.0789503

>  <SCORE.RESTR>
0

>  <SCORE.RESTR.CAVITY>
0

>  <SCORE.RESTR.norm>
0

>  <SCORE.SYSTEM>
0

>  <SCORE.SYSTEM.CONST>
0

>  <SCORE.SYSTEM.DIHEDRAL>
0

>  <SCORE.SYSTEM.SOLV>
0

>  <SCORE.SYSTEM.norm>
0

>  <SCORE.heavy>
34

>  <SCORE.norm>
-0.55477

>  <RMSD>
0.732

$$$$
ligand
 OpenBabel01301917533D
libRbt.so/2013.1/901 2013/11/27
 34 36  0  0  0  0  0  0  0  0999 V2000
   18.3187   28.3984   35.0981 C   0  0  2  0  0  0  0  0  0  0  0  0
   18.8427   27.8213   36.2984 O   0  0  0  0  0  0  0  0  0  0  0  0
   22.5603   28.0566   38.4259 C   0  0  2  0  0  0  0  0  0  0  0  0
   23.9879   27.9639   38.7604 N   0  0  0  0  0  0  0  0  0  0  0  0
   24.1230   30.8862   37.4189 C   0  0  2  0  0  0  0  0  0  0  0  0
   16.7853   28.6802   35.3212 C   0  0  2  0  0  0  0  0  0  0  0  0
   16.5790   29.5907   36.4590 N   0  0  0  0  0  0  0  0  0  0  0  0
   22.0887   26.6375   37.9432 C   0  0  0  0  0  0  0  0  0  0  0  0
   24.4390   32.0155   38.4773 C   0  0  2  0  0  0  0  0  0  0  0  0
   24.4245   31.4788   39.7889 O   0  0  0  0  0  0  0  0  0  0  0  0
   16.0215   27.3429   35.5603 C   0  0  1  0  0  0  0  0  0  0  0  0
   14.6191   27.5959   35.7649 O   0  0  0  0  0  0  0  0  0  0  0  0
   20.5594   26.7329   37.6047 C   0  0  2  0  0  0  0  0  0  0  0  0
   20.0426   25.4170   37.1317 N   0  0  0  0  0  0  0  0  0  0  0  0
   23.3455   33.1409   38.3356 C   0  0  1  0  0  0  0  0  0  0  0  0
   23.5635   34.2142   39.3263 N   0  0  0  0  0  0  0  0  0  0  0  0
   16.2626   26.4192   34.3434 C   0  0  2  0  0  0  0  0  0  0  0  0
   15.5588   25.1884   34.5375 O   0  0  0  0  0  0  0  0  0  0  0  0
   20.3013   27.8008   36.4992 C   0  0  2  0  0  0  0  0  0  0  0  0
   23.3964   33.7200   36.8864 C   0  0  1  0  0  0  0  0  0  0  0  0
   24.6796   34.3012   36.6791 O   0  0  0  0  0  0  0  0  0  0  0  0
   17.8258   26.1795   34.1851 C   0  0  2  0  0  0  0  0  0  0  0  0
   18.5359   27.4640   33.9961 O   0  0  0  0  0  0  0  0  0  0  0  0
   20.8397   29.1749   36.9824 C   0  0  2  0  0  0  0  0  0  0  0  0
   20.6200   30.1254   35.9422 O   0  0  0  0  0  0  0  0  0  0  0  0
   23.1676   32.5562   35.8692 C   0  0  0  0  0  0  0  0  0  0  0  0
   24.1563   31.4685   36.0629 O   0  0  0  0  0  0  0  0  0  0  0  0
   18.1721   25.2608   32.9783 C   0  0  2  0  0  0  0  0  0  0  0  0
   17.4243   24.0441   33.0817 O   0  0  0  0  0  0  0  0  0  0  0  0
   22.3605   29.1287   37.2714 C   0  0  1  0  0  0  0  0  0  0  0  0
   22.7653   30.4443   37.7403 O   0  0  0  0  0  0  0  0  0  0  0  0
   19.6408   24.9001   32.9379 C   0  0  0  0  0  0  0  0  0  0  0  0
   22.3466   34.8092   36.6621 C   0  0  0  0  0  0  0  0  0  0  0  0
   22.7780   33.8683   40.5363 C   0  0  0  0  0  0  0  0  0  0  0  0
  1  2  1  1  0  0  0
  1  6  1  0  0  0  0
  1 23  1  0  0  0  0
  3  4  1  6  0  0  0
  3  8  1  0  0  0  0
  3 30  1  0  0  0  0
  5  9  1  0  0  0  0
  5 27  1  0  0  0  0
  5 31  1  1  0  0  0
  6  7  1  1  0  0  0
  6 11  1  0  0  0  0
  8 13  1  0  0  0  0
  9 10  1  1  0  0  0
  9 15  1  0  0  0  0
 11 12  1  6  0  0  0
 11 17  1  0  0  0  0
 13 14  1  6  0  0  0
 13 19  1  0  0  0  0
 15 16  1  1  0  0  0
 15 20  1  0  0  0  0
 16 34  1  0  0  0  0
 17 18  1  1  0  0  0
 17 22  1  0  0  0  0
 19  2  1  1  0  0  0
 19 24  1  0  0  0  0
 20 21  1  6  0  0  0
 20 26  1  0  0  0  0
 20 33  1  0  0  0  0
 22 23  1  6  0  0  0
 22 28  1  0  0  0  0
 24 25  1  6  0  0  0
 24 30  1  0  0  0  0
 26 27  1  0  0  0  0
 28 29  1  1  0  0  0
 28 32  1  0  0  0  0
 30 31  1  1  0  0  0
M  END
>  <CHROM.1>
-163.41154807,-161.86337502,-91.34608268,-53.38300239,96.16725546,-158.99944463
20.61136298,29.20591367,36.48112589,2.36796933,0.39872100,-3.02817620

>  <Name>
ligand

>  <RI>
0

>  <Rbt.Current_Directory>
/home/itssahil/PROJECTS/Mol_Feturizer/New_Systems/rnas/4p3s

>  <Rbt.Executable>
rbdock ($Id: //depot/dev/client3/rdock/2013.1/src/exe/rbdock.cxx#4 $)

>  <Rbt.Library>
libRbt.so (2013.1, Build901 2013/11/27)

>  <Rbt.Parameter_File>
/export/apps/rDock/src/rDock_2013.1_src/data/scripts/dock_solv.prm

>  <Rbt.Receptor>
prm/pocket_docking_2.prm

>  <SCORE>
-18.8228

>  <SCORE.INTER>
-16.3058

>  <SCORE.INTER.CONST>
1

>  <SCORE.INTER.POLAR>
0

>  <SCORE.INTER.ROT>
6

>  <SCORE.INTER.SOLV>
19.4836

>  <SCORE.INTER.VDW>
-24.965

>  <SCORE.INTER.norm>
-0.479581

>  <SCORE.INTRA>
-2.51707

>  <SCORE.INTRA.DIHEDRAL>
-5.50828

>  <SCORE.INTRA.DIHEDRAL.0>
15.8194

>  <SCORE.INTRA.POLAR>
0

>  <SCORE.INTRA.POLAR.0>
0

>  <SCORE.INTRA.REPUL>
0

>  <SCORE.INTRA.REPUL.0>
0

>  <SCORE.INTRA.SOLV>
0.309592

>  <SCORE.INTRA.SOLV.lig_0>
-71.9159

>  <SCORE.INTRA.VDW>
0.0822769

>  <SCORE.INTRA.VDW.0>
-3.53918

>  <SCORE.INTRA.norm>
-0.0740314

>  <SCORE.RESTR>
0

>  <SCORE.RESTR.CAVITY>
0

>  <SCORE.RESTR.norm>
0

>  <SCORE.SYSTEM>
0

>  <SCORE.SYSTEM.CONST>
0

>  <SCORE.SYSTEM.DIHEDRAL>
0

>  <SCORE.SYSTEM.SOLV>
0

>  <SCORE.SYSTEM.norm>
0

>  <SCORE.heavy>
34

>  <SCORE.norm>
-0.553612

>  <RMSD>
0.735

$$$$
ligand
 OpenBabel01301917533D
libRbt.so/2013.1/901 2013/11/27
 34 36  0  0  0  0  0  0  0  0999 V2000
   18.5010   28.3073   35.1877 C   0  0  2  0  0  0  0  0  0  0  0  0
   19.0110   27.7207   36.3894 O   0  0  0  0  0  0  0  0  0  0  0  0
   22.6834   28.0542   38.5812 C   0  0  2  0  0  0  0  0  0  0  0  0
   24.1051   27.9861   38.9457 N   0  0  0  0  0  0  0  0  0  0  0  0
   24.2204   30.8902   37.4855 C   0  0  2  0  0  0  0  0  0  0  0  0
   16.9307   28.3585   35.2980 C   0  0  2  0  0  0  0  0  0  0  0  0
   16.5122   29.1456   36.4690 N   0  0  0  0  0  0  0  0  0  0  0  0
   22.2359   26.6174   38.1288 C   0  0  0  0  0  0  0  0  0  0  0  0
   24.5244   32.0472   38.5171 C   0  0  2  0  0  0  0  0  0  0  0  0
   24.5395   31.5366   39.8390 O   0  0  0  0  0  0  0  0  0  0  0  0
   16.3500   26.9150   35.3877 C   0  0  1  0  0  0  0  0  0  0  0  0
   14.9146   26.9572   35.4889 O   0  0  0  0  0  0  0  0  0  0  0  0
   20.7127   26.6870   37.7583 C   0  0  2  0  0  0  0  0  0  0  0  0
   20.2188   25.3531   37.3118 N   0  0  0  0  0  0  0  0  0  0  0  0
   23.4038   33.1446   38.3683 C   0  0  1  0  0  0  0  0  0  0  0  0
   23.6104   34.2421   39.3346 N   0  0  0  0  0  0  0  0  0  0  0  0
   16.8107   26.1255   34.1401 C   0  0  2  0  0  0  0  0  0  0  0  0
   16.2774   24.7987   34.1968 O   0  0  0  0  0  0  0  0  0  0  0  0
   20.4655   27.7214   36.6189 C   0  0  2  0  0  0  0  0  0  0  0  0
   23.4224   33.6957   36.9074 C   0  0  1  0  0  0  0  0  0  0  0  0
   24.6892   34.3014   36.6712 O   0  0  0  0  0  0  0  0  0  0  0  0
   18.3995   26.1151   34.0994 C   0  0  2  0  0  0  0  0  0  0  0  0
   18.9310   27.4955   34.0516 O   0  0  0  0  0  0  0  0  0  0  0  0
   20.9802   29.1139   37.0743 C   0  0  2  0  0  0  0  0  0  0  0  0
   20.7713   30.0331   36.0042 O   0  0  0  0  0  0  0  0  0  0  0  0
   23.2067   32.5069   35.9165 C   0  0  0  0  0  0  0  0  0  0  0  0
   24.2224   31.4458   36.1180 O   0  0  0  0  0  0  0  0  0  0  0  0
   18.9627   25.3443   32.8710 C   0  0  2  0  0  0  0  0  0  0  0  0
   18.2740   25.7707   31.6903 O   0  0  0  0  0  0  0  0  0  0  0  0
   22.4954   29.0920   37.3939 C   0  0  1  0  0  0  0  0  0  0  0  0
   22.8774   30.4243   37.8341 O   0  0  0  0  0  0  0  0  0  0  0  0
   18.7773   23.8485   33.0011 C   0  0  0  0  0  0  0  0  0  0  0  0
   22.3451   34.7563   36.6761 C   0  0  0  0  0  0  0  0  0  0  0  0
   22.8583   33.8974   40.5660 C   0  0  0  0  0  0  0  0  0  0  0  0
  1  2  1  1  0  0  0
  1  6  1  0  0  0  0
  1 23  1  0  0  0  0
  3  4  1  6  0  0  0
  3  8  1  0  0  0  0
  3 30  1  0  0  0  0
  5  9  1  0  0  0  0
  5 27  1  0  0  0  0
  5 31  1  1  0  0  0
  6  7  1  1  0  0  0
  6 11  1  0  0  0  0
  8 13  1  0  0  0  0
  9 10  1  1  0  0  0
  9 15  1  0  0  0  0
 11 12  1  6  0  0  0
 11 17  1  0  0  0  0
 13 14  1  6  0  0  0
 13 19  1  0  0  0  0
 15 16  1  1  0  0  0
 15 20  1  0  0  0  0
 16 34  1  0  0  0  0
 17 18  1  1  0  0  0
 17 22  1  0  0  0  0
 19  2  1  1  0  0  0
 19 24  1  0  0  0  0
 20 21  1  6  0  0  0
 20 26  1  0  0  0  0
 20 33  1  0  0  0  0
 22 23  1  6  0  0  0
 22 28  1  0  0  0  0
 24 25  1  6  0  0  0
 24 30  1  0  0  0  0
 26 27  1  0  0  0  0
 28 29  1  6  0  0  0
 28 32  1  0  0  0  0
 30 31  1  1  0  0  0
M  END
>  <CHROM.1>
-171.87709482,-164.33457399,-90.87319986,47.50611588,98.28926652,-159.14360956
20.79124041,29.13978245,36.45713864,2.41954276,0.57108422,3.11086856

>  <Name>
ligand

>  <RI>
0

>  <Rbt.Current_Directory>
/home/itssahil/PROJECTS/Mol_Feturizer/New_Systems/rnas/4p3s

>  <Rbt.Executable>
rbdock ($Id: //depot/dev/client3/rdock/2013.1/src/exe/rbdock.cxx#4 $)

>  <Rbt.Library>
libRbt.so (2013.1, Build901 2013/11/27)

>  <Rbt.Parameter_File>
/export/apps/rDock/src/rDock_2013.1_src/data/scripts/dock_solv.prm

>  <Rbt.Receptor>
prm/pocket_docking_2.prm

>  <SCORE>
-18.9112

>  <SCORE.INTER>
-16.1017

>  <SCORE.INTER.CONST>
1

>  <SCORE.INTER.POLAR>
0

>  <SCORE.INTER.ROT>
6

>  <SCORE.INTER.SOLV>
20.9967

>  <SCORE.INTER.VDW>
-25.3334

>  <SCORE.INTER.norm>
-0.473579

>  <SCORE.INTRA>
-2.80952

>  <SCORE.INTRA.DIHEDRAL>
-6.1317

>  <SCORE.INTRA.DIHEDRAL.0>
15.8194

>  <SCORE.INTRA.POLAR>
0

>  <SCORE.INTRA.POLAR.0>
0

>  <SCORE.INTRA.REPUL>
0

>  <SCORE.INTRA.REPUL.0>
0

>  <SCORE.INTRA.SOLV>
-0.271641

>  <SCORE.INTRA.SOLV.lig_0>
-71.9159

>  <SCORE.INTRA.VDW>
0.392156

>  <SCORE.INTRA.VDW.0>
-3.53918

>  <SCORE.INTRA.norm>
-0.0826328

>  <SCORE.RESTR>
0

>  <SCORE.RESTR.CAVITY>
0

>  <SCORE.RESTR.norm>
0

>  <SCORE.SYSTEM>
0

>  <SCORE.SYSTEM.CONST>
0

>  <SCORE.SYSTEM.DIHEDRAL>
0

>  <SCORE.SYSTEM.SOLV>
0

>  <SCORE.SYSTEM.norm>
0

>  <SCORE.heavy>
34

>  <SCORE.norm>
-0.556212

>  <RMSD>
0.740

$$$$
ligand
 OpenBabel01301917533D
libRbt.so/2013.1/901 2013/11/27
 34 36  0  0  0  0  0  0  0  0999 V2000
   18.3131   28.3262   35.0293 C   0  0  2  0  0  0  0  0  0  0  0  0
   18.8295   27.8353   36.2705 O   0  0  0  0  0  0  0  0  0  0  0  0
   22.5490   28.0417   38.3978 C   0  0  2  0  0  0  0  0  0  0  0  0
   23.9760   27.9388   38.7318 N   0  0  0  0  0  0  0  0  0  0  0  0
   24.1386   30.8524   37.4185 C   0  0  2  0  0  0  0  0  0  0  0  0
   16.7772   28.6176   35.2211 C   0  0  2  0  0  0  0  0  0  0  0  0
   16.5597   29.6039   36.2915 N   0  0  0  0  0  0  0  0  0  0  0  0
   22.0679   26.6267   37.9123 C   0  0  0  0  0  0  0  0  0  0  0  0
   24.4583   31.9655   38.4927 C   0  0  2  0  0  0  0  0  0  0  0  0
   24.4174   31.4157   39.7983 O   0  0  0  0  0  0  0  0  0  0  0  0
   16.0153   27.2975   35.5466 C   0  0  1  0  0  0  0  0  0  0  0  0
   14.6108   27.5593   35.7228 O   0  0  0  0  0  0  0  0  0  0  0  0
   20.5393   26.7329   37.5743 C   0  0  2  0  0  0  0  0  0  0  0  0
   20.0137   25.4214   37.0987 N   0  0  0  0  0  0  0  0  0  0  0  0
   23.3852   33.1099   38.3482 C   0  0  1  0  0  0  0  0  0  0  0  0
   23.6071   34.1693   39.3528 N   0  0  0  0  0  0  0  0  0  0  0  0
   16.2683   26.2926   34.3984 C   0  0  2  0  0  0  0  0  0  0  0  0
   15.5665   25.0758   34.6720 O   0  0  0  0  0  0  0  0  0  0  0  0
   20.2880   27.8048   36.4710 C   0  0  2  0  0  0  0  0  0  0  0  0
   23.4652   33.7029   36.9059 C   0  0  1  0  0  0  0  0  0  0  0  0
   24.7603   34.2652   36.7219 O   0  0  0  0  0  0  0  0  0  0  0  0
   17.8333   26.0477   34.2686 C   0  0  2  0  0  0  0  0  0  0  0  0
   18.5412   27.3185   33.9963 O   0  0  0  0  0  0  0  0  0  0  0  0
   20.8356   29.1742   36.9569 C   0  0  2  0  0  0  0  0  0  0  0  0
   20.6220   30.1283   35.9187 O   0  0  0  0  0  0  0  0  0  0  0  0
   23.2314   32.5534   35.8737 C   0  0  0  0  0  0  0  0  0  0  0  0
   24.1996   31.4478   36.0692 O   0  0  0  0  0  0  0  0  0  0  0  0
   18.1914   25.0489   33.1309 C   0  0  2  0  0  0  0  0  0  0  0  0
   17.4982   23.8154   33.3505 O   0  0  0  0  0  0  0  0  0  0  0  0
   22.3561   29.1174   37.2455 C   0  0  1  0  0  0  0  0  0  0  0  0
   22.7696   30.4294   37.7171 O   0  0  0  0  0  0  0  0  0  0  0  0
   19.6728   24.7457   33.0820 C   0  0  0  0  0  0  0  0  0  0  0  0
   22.4362   34.8113   36.6789 C   0  0  0  0  0  0  0  0  0  0  0  0
   22.7373   33.8677   40.5162 C   0  0  0  0  0  0  0  0  0  0  0  0
  1  2  1  1  0  0  0
  1  6  1  0  0  0  0
  1 23  1  0  0  0  0
  3  4  1  6  0  0  0
  3  8  1  0  0  0  0
  3 30  1  0  0  0  0
  5  9  1  0  0  0  0
  5 27  1  0  0  0  0
  5 31  1  1  0  0  0
  6  7  1  1  0  0  0
  6 11  1  0  0  0  0
  8 13  1  0  0  0  0
  9 10  1  1  0  0  0
  9 15  1  0  0  0  0
 11 12  1  6  0  0  0
 11 17  1  0  0  0  0
 13 14  1  6  0  0  0
 13 19  1  0  0  0  0
 15 16  1  1  0  0  0
 15 20  1  0  0  0  0
 16 34  1  0  0  0  0
 17 18  1  1  0  0  0
 17 22  1  0  0  0  0
 19  2  1  1  0  0  0
 19 24  1  0  0  0  0
 20 21  1  6  0  0  0
 20 26  1  0  0  0  0
 20 33  1  0  0  0  0
 22 23  1  6  0  0  0
 22 28  1  0  0  0  0
 24 25  1  6  0  0  0
 24 30  1  0  0  0  0
 26 27  1  0  0  0  0
 28 29  1  1  0  0  0
 28 32  1  0  0  0  0
 30 31  1  1  0  0  0
M  END
>  <CHROM.1>
-164.80200917,-157.22771509,-94.69583836,-56.29400416,95.02036252,-158.14392052
20.62351658,29.15636780,36.49072973,2.35863900,0.38244001,-3.02300444

>  <Name>
ligand

>  <RI>
0

>  <Rbt.Current_Directory>
/home/itssahil/PROJECTS/Mol_Feturizer/New_Systems/rnas/4p3s

>  <Rbt.Executable>
rbdock ($Id: //depot/dev/client3/rdock/2013.1/src/exe/rbdock.cxx#4 $)

>  <Rbt.Library>
libRbt.so (2013.1, Build901 2013/11/27)

>  <Rbt.Parameter_File>
/export/apps/rDock/src/rDock_2013.1_src/data/scripts/dock_solv.prm

>  <Rbt.Receptor>
prm/pocket_docking_2.prm

>  <SCORE>
-18.9653

>  <SCORE.INTER>
-16.5758

>  <SCORE.INTER.CONST>
1

>  <SCORE.INTER.POLAR>
0

>  <SCORE.INTER.ROT>
6

>  <SCORE.INTER.SOLV>
19.3362

>  <SCORE.INTER.VDW>
-25.0959

>  <SCORE.INTER.norm>
-0.487522

>  <SCORE.INTRA>
-2.38951

>  <SCORE.INTRA.DIHEDRAL>
-5.00689

>  <SCORE.INTRA.DIHEDRAL.0>
15.8194

>  <SCORE.INTRA.POLAR>
0

>  <SCORE.INTRA.POLAR.0>
0

>  <SCORE.INTRA.REPUL>
0

>  <SCORE.INTRA.REPUL.0>
0

>  <SCORE.INTRA.SOLV>
0.657203

>  <SCORE.INTRA.SOLV.lig_0>
-71.9159

>  <SCORE.INTRA.VDW>
-0.214661

>  <SCORE.INTRA.VDW.0>
-3.53918

>  <SCORE.INTRA.norm>
-0.0702796

>  <SCORE.RESTR>
0

>  <SCORE.RESTR.CAVITY>
0

>  <SCORE.RESTR.norm>
0

>  <SCORE.SYSTEM>
0

>  <SCORE.SYSTEM.CONST>
0

>  <SCORE.SYSTEM.DIHEDRAL>
0

>  <SCORE.SYSTEM.SOLV>
0

>  <SCORE.SYSTEM.norm>
0

>  <SCORE.heavy>
34

>  <SCORE.norm>
-0.557802

>  <RMSD>
0.747

$$$$
ligand
 OpenBabel01301917533D
libRbt.so/2013.1/901 2013/11/27
 34 36  0  0  0  0  0  0  0  0999 V2000
   18.4834   28.2260   35.1129 C   0  0  2  0  0  0  0  0  0  0  0  0
   18.9962   27.6598   36.3231 O   0  0  0  0  0  0  0  0  0  0  0  0
   22.6669   28.0123   38.5148 C   0  0  2  0  0  0  0  0  0  0  0  0
   24.0892   27.9532   38.8785 N   0  0  0  0  0  0  0  0  0  0  0  0
   24.1905   30.8548   37.4475 C   0  0  2  0  0  0  0  0  0  0  0  0
   16.9105   28.1794   35.1805 C   0  0  2  0  0  0  0  0  0  0  0  0
   16.4129   28.9275   36.3462 N   0  0  0  0  0  0  0  0  0  0  0  0
   22.2297   26.5739   38.0575 C   0  0  0  0  0  0  0  0  0  0  0  0
   24.4867   31.9955   38.4994 C   0  0  2  0  0  0  0  0  0  0  0  0
   24.4879   31.4650   39.8135 O   0  0  0  0  0  0  0  0  0  0  0  0
   16.4178   26.7021   35.2423 C   0  0  1  0  0  0  0  0  0  0  0  0
   14.9804   26.6549   35.3045 O   0  0  0  0  0  0  0  0  0  0  0  0
   20.7059   26.6337   37.6877 C   0  0  2  0  0  0  0  0  0  0  0  0
   20.2216   25.2979   37.2368 N   0  0  0  0  0  0  0  0  0  0  0  0
   23.3696   33.0973   38.3562 C   0  0  1  0  0  0  0  0  0  0  0  0
   23.5688   34.1796   39.3410 N   0  0  0  0  0  0  0  0  0  0  0  0
   16.9597   25.9550   34.0012 C   0  0  2  0  0  0  0  0  0  0  0  0
   16.5080   24.5974   34.0323 O   0  0  0  0  0  0  0  0  0  0  0  0
   20.4507   27.6703   36.5521 C   0  0  2  0  0  0  0  0  0  0  0  0
   23.4034   33.6703   36.9041 C   0  0  1  0  0  0  0  0  0  0  0  0
   24.6736   34.2769   36.6894 O   0  0  0  0  0  0  0  0  0  0  0  0
   18.5466   26.0427   34.0040 C   0  0  2  0  0  0  0  0  0  0  0  0
   18.9929   27.4535   33.9822 O   0  0  0  0  0  0  0  0  0  0  0  0
   20.9555   29.0649   37.0123 C   0  0  2  0  0  0  0  0  0  0  0  0
   20.7394   29.9863   35.9455 O   0  0  0  0  0  0  0  0  0  0  0  0
   23.1952   32.4970   35.8934 C   0  0  0  0  0  0  0  0  0  0  0  0
   24.2069   31.4309   36.0886 O   0  0  0  0  0  0  0  0  0  0  0  0
   19.1890   25.3203   32.7850 C   0  0  2  0  0  0  0  0  0  0  0  0
   18.4257   25.6103   31.6088 O   0  0  0  0  0  0  0  0  0  0  0  0
   22.4709   29.0529   37.3312 C   0  0  1  0  0  0  0  0  0  0  0  0
   22.8434   30.3864   37.7760 O   0  0  0  0  0  0  0  0  0  0  0  0
   19.2167   23.8180   32.9608 C   0  0  0  0  0  0  0  0  0  0  0  0
   22.3304   34.7364   36.6783 C   0  0  0  0  0  0  0  0  0  0  0  0
   22.6918   33.8909   40.5022 C   0  0  0  0  0  0  0  0  0  0  0  0
  1  2  1  1  0  0  0
  1  6  1  0  0  0  0
  1 23  1  0  0  0  0
  3  4  1  6  0  0  0
  3  8  1  0  0  0  0
  3 30  1  0  0  0  0
  5  9  1  0  0  0  0
  5 27  1  0  0  0  0
  5 31  1  1  0  0  0
  6  7  1  1  0  0  0
  6 11  1  0  0  0  0
  8 13  1  0  0  0  0
  9 10  1  1  0  0  0
  9 15  1  0  0  0  0
 11 12  1  6  0  0  0
 11 17  1  0  0  0  0
 13 14  1  6  0  0  0
 13 19  1  0  0  0  0
 15 16  1  1  0  0  0
 15 20  1  0  0  0  0
 16 34  1  0  0  0  0
 17 18  1  1  0  0  0
 17 22  1  0  0  0  0
 19  2  1  1  0  0  0
 19 24  1  0  0  0  0
 20 21  1  6  0  0  0
 20 26  1  0  0  0  0
 20 33  1  0  0  0  0
 22 23  1  6  0  0  0
 22 28  1  0  0  0  0
 24 25  1  6  0  0  0
 24 30  1  0  0  0  0
 26 27  1  0  0  0  0
 28 29  1  6  0  0  0
 28 32  1  0  0  0  0
 30 31  1  1  0  0  0
M  END
>  <CHROM.1>
-175.77477695,-163.25246687,-96.77576318,41.81176726,97.31181578,-158.14821272
20.81506873,29.06343840,36.39145938,2.38647608,0.56487332,-3.13839966

>  <Name>
ligand

>  <RI>
0

>  <Rbt.Current_Directory>
/home/itssahil/PROJECTS/Mol_Feturizer/New_Systems/rnas/4p3s

>  <Rbt.Executable>
rbdock ($Id: //depot/dev/client3/rdock/2013.1/src/exe/rbdock.cxx#4 $)

>  <Rbt.Library>
libRbt.so (2013.1, Build901 2013/11/27)

>  <Rbt.Parameter_File>
/export/apps/rDock/src/rDock_2013.1_src/data/scripts/dock_solv.prm

>  <Rbt.Receptor>
prm/pocket_docking_5.prm

>  <SCORE>
-18.8913

>  <SCORE.INTER>
-16.0028

>  <SCORE.INTER.CONST>
1

>  <SCORE.INTER.POLAR>
0

>  <SCORE.INTER.ROT>
6

>  <SCORE.INTER.SOLV>
21.3003

>  <SCORE.INTER.VDW>
-25.3686

>  <SCORE.INTER.norm>
-0.470671

>  <SCORE.INTRA>
-2.88845

>  <SCORE.INTRA.DIHEDRAL>
-5.46195

>  <SCORE.INTRA.DIHEDRAL.0>
15.8194

>  <SCORE.INTRA.POLAR>
0

>  <SCORE.INTRA.POLAR.0>
0

>  <SCORE.INTRA.REPUL>
0

>  <SCORE.INTRA.REPUL.0>
0

>  <SCORE.INTRA.SOLV>
-0.0906911

>  <SCORE.INTRA.SOLV.lig_0>
-71.9159

>  <SCORE.INTRA.VDW>
-0.112134

>  <SCORE.INTRA.VDW.0>
-3.53918

>  <SCORE.INTRA.norm>
-0.0849545

>  <SCORE.RESTR>
0

>  <SCORE.RESTR.CAVITY>
0

>  <SCORE.RESTR.norm>
0

>  <SCORE.SYSTEM>
0

>  <SCORE.SYSTEM.CONST>
0

>  <SCORE.SYSTEM.DIHEDRAL>
0

>  <SCORE.SYSTEM.SOLV>
0

>  <SCORE.SYSTEM.norm>
0

>  <SCORE.heavy>
34

>  <SCORE.norm>
-0.555625

>  <RMSD>
0.747

$$$$
ligand
 OpenBabel01301917533D
libRbt.so/2013.1/901 2013/11/27
 34 36  0  0  0  0  0  0  0  0999 V2000
   18.4283   28.2660   35.2829 C   0  0  2  0  0  0  0  0  0  0  0  0
   18.9867   27.6154   36.4288 O   0  0  0  0  0  0  0  0  0  0  0  0
   22.6944   28.0314   38.5458 C   0  0  2  0  0  0  0  0  0  0  0  0
   24.1248   27.9993   38.8797 N   0  0  0  0  0  0  0  0  0  0  0  0
   24.1534   30.8928   37.4989 C   0  0  2  0  0  0  0  0  0  0  0  0
   16.8591   28.2133   35.4081 C   0  0  2  0  0  0  0  0  0  0  0  0
   16.4086   28.8759   36.6426 N   0  0  0  0  0  0  0  0  0  0  0  0
   22.2767   26.5867   38.0902 C   0  0  0  0  0  0  0  0  0  0  0  0
   24.4253   32.0445   38.5453 C   0  0  2  0  0  0  0  0  0  0  0  0
   24.4175   31.5238   39.8634 O   0  0  0  0  0  0  0  0  0  0  0  0
   16.3666   26.7348   35.3836 C   0  0  1  0  0  0  0  0  0  0  0  0
   14.9325   26.6820   35.4980 O   0  0  0  0  0  0  0  0  0  0  0  0
   20.7447   26.6175   37.7524 C   0  0  2  0  0  0  0  0  0  0  0  0
   20.2779   25.2744   37.3046 N   0  0  0  0  0  0  0  0  0  0  0  0
   23.2979   33.1328   38.3814 C   0  0  1  0  0  0  0  0  0  0  0  0
   23.4742   34.2246   39.3601 N   0  0  0  0  0  0  0  0  0  0  0  0
   16.8584   26.0786   34.0722 C   0  0  2  0  0  0  0  0  0  0  0  0
   16.4058   24.7219   34.0239 O   0  0  0  0  0  0  0  0  0  0  0  0
   20.4452   27.6542   36.6277 C   0  0  2  0  0  0  0  0  0  0  0  0
   23.3418   33.6953   36.9255 C   0  0  1  0  0  0  0  0  0  0  0  0
   24.6076   34.3143   36.7204 O   0  0  0  0  0  0  0  0  0  0  0  0
   18.4444   26.1674   34.0195 C   0  0  2  0  0  0  0  0  0  0  0  0
   18.8922   27.5766   34.0811 O   0  0  0  0  0  0  0  0  0  0  0  0
   20.9313   29.0565   37.0846 C   0  0  2  0  0  0  0  0  0  0  0  0
   20.6747   29.9784   36.0273 O   0  0  0  0  0  0  0  0  0  0  0  0
   23.1578   32.5124   35.9214 C   0  0  0  0  0  0  0  0  0  0  0  0
   24.1788   31.4590   36.1360 O   0  0  0  0  0  0  0  0  0  0  0  0
   19.0376   25.5343   32.7281 C   0  0  2  0  0  0  0  0  0  0  0  0
   18.2592   25.9476   31.5996 O   0  0  0  0  0  0  0  0  0  0  0  0
   22.4530   29.0735   37.3719 C   0  0  1  0  0  0  0  0  0  0  0  0
   22.8079   30.4120   37.8158 O   0  0  0  0  0  0  0  0  0  0  0  0
   19.0215   24.0223   32.7737 C   0  0  0  0  0  0  0  0  0  0  0  0
   22.2598   34.7479   36.6797 C   0  0  0  0  0  0  0  0  0  0  0  0
   22.6670   33.8831   40.5571 C   0  0  0  0  0  0  0  0  0  0  0  0
  1  2  1  1  0  0  0
  1  6  1  0  0  0  0
  1 23  1  0  0  0  0
  3  4  1  6  0  0  0
  3  8  1  0  0  0  0
  3 30  1  0  0  0  0
  5  9  1  0  0  0  0
  5 27  1  0  0  0  0
  5 31  1  1  0  0  0
  6  7  1  1  0  0  0
  6 11  1  0  0  0  0
  8 13  1  0  0  0  0
  9 10  1  1  0  0  0
  9 15  1  0  0  0  0
 11 12  1  6  0  0  0
 11 17  1  0  0  0  0
 13 14  1  6  0  0  0
 13 19  1  0  0  0  0
 15 16  1  1  0  0  0
 15 20  1  0  0  0  0
 16 34  1  0  0  0  0
 17 18  1  1  0  0  0
 17 22  1  0  0  0  0
 19  2  1  1  0  0  0
 19 24  1  0  0  0  0
 20 21  1  6  0  0  0
 20 26  1  0  0  0  0
 20 33  1  0  0  0  0
 22 23  1  6  0  0  0
 22 28  1  0  0  0  0
 24 25  1  6  0  0  0
 24 30  1  0  0  0  0
 26 27  1  0  0  0  0
 28 29  1  6  0  0  0
 28 32  1  0  0  0  0
 30 31  1  1  0  0  0
M  END
>  <CHROM.1>
-173.51778250,-167.95186994,-92.55078028,43.95963086,95.40925058,-158.40734921
20.76381203,29.11386646,36.44795118,2.41640716,0.58802561,3.10688884

>  <Name>
ligand

>  <RI>
0

>  <Rbt.Current_Directory>
/home/itssahil/PROJECTS/Mol_Feturizer/New_Systems/rnas/4p3s

>  <Rbt.Executable>
rbdock ($Id: //depot/dev/client3/rdock/2013.1/src/exe/rbdock.cxx#4 $)

>  <Rbt.Library>
libRbt.so (2013.1, Build901 2013/11/27)

>  <Rbt.Parameter_File>
/export/apps/rDock/src/rDock_2013.1_src/data/scripts/dock_solv.prm

>  <Rbt.Receptor>
prm/pocket_docking_3.prm

>  <SCORE>
-19.0809

>  <SCORE.INTER>
-15.8198

>  <SCORE.INTER.CONST>
1

>  <SCORE.INTER.POLAR>
0

>  <SCORE.INTER.ROT>
6

>  <SCORE.INTER.SOLV>
21.2322

>  <SCORE.INTER.VDW>
-25.2239

>  <SCORE.INTER.norm>
-0.465287

>  <SCORE.INTRA>
-3.26114

>  <SCORE.INTRA.DIHEDRAL>
-6.6864

>  <SCORE.INTRA.DIHEDRAL.0>
15.8194

>  <SCORE.INTRA.POLAR>
0

>  <SCORE.INTRA.POLAR.0>
0

>  <SCORE.INTRA.REPUL>
0

>  <SCORE.INTRA.REPUL.0>
0

>  <SCORE.INTRA.SOLV>
-0.385463

>  <SCORE.INTRA.SOLV.lig_0>
-71.9159

>  <SCORE.INTRA.VDW>
0.274796

>  <SCORE.INTRA.VDW.0>
-3.53918

>  <SCORE.INTRA.norm>
-0.0959158

>  <SCORE.RESTR>
0

>  <SCORE.RESTR.CAVITY>
0

>  <SCORE.RESTR.norm>
0

>  <SCORE.SYSTEM>
0

>  <SCORE.SYSTEM.CONST>
0

>  <SCORE.SYSTEM.DIHEDRAL>
0

>  <SCORE.SYSTEM.SOLV>
0

>  <SCORE.SYSTEM.norm>
0

>  <SCORE.heavy>
34

>  <SCORE.norm>
-0.561203

>  <RMSD>
0.763

$$$$
ligand
 OpenBabel01301917533D
libRbt.so/2013.1/901 2013/11/27
 34 36  0  0  0  0  0  0  0  0999 V2000
   18.4478   28.3418   35.2327 C   0  0  2  0  0  0  0  0  0  0  0  0
   18.9824   27.7141   36.4024 O   0  0  0  0  0  0  0  0  0  0  0  0
   22.6871   28.0338   38.5415 C   0  0  2  0  0  0  0  0  0  0  0  0
   24.1148   27.9687   38.8822 N   0  0  0  0  0  0  0  0  0  0  0  0
   24.1978   30.8882   37.4927 C   0  0  2  0  0  0  0  0  0  0  0  0
   16.8765   28.3122   35.3380 C   0  0  2  0  0  0  0  0  0  0  0  0
   16.4184   29.0122   36.5489 N   0  0  0  0  0  0  0  0  0  0  0  0
   22.2415   26.6022   38.0712 C   0  0  0  0  0  0  0  0  0  0  0  0
   24.4879   32.0519   38.5208 C   0  0  2  0  0  0  0  0  0  0  0  0
   24.4946   31.5480   39.8455 O   0  0  0  0  0  0  0  0  0  0  0  0
   16.3651   26.8400   35.3448 C   0  0  1  0  0  0  0  0  0  0  0  0
   14.9291   26.8084   35.4412 O   0  0  0  0  0  0  0  0  0  0  0  0
   20.7122   26.6681   37.7261 C   0  0  2  0  0  0  0  0  0  0  0  0
   20.2197   25.3390   37.2644 N   0  0  0  0  0  0  0  0  0  0  0  0
   23.3633   33.1431   38.3573 C   0  0  1  0  0  0  0  0  0  0  0  0
   23.5568   34.2464   39.3197 N   0  0  0  0  0  0  0  0  0  0  0  0
   16.8656   26.1439   34.0576 C   0  0  2  0  0  0  0  0  0  0  0  0
   16.3960   24.7922   34.0380 O   0  0  0  0  0  0  0  0  0  0  0  0
   20.4404   27.7204   36.6089 C   0  0  2  0  0  0  0  0  0  0  0  0
   23.3913   33.6869   36.8939 C   0  0  1  0  0  0  0  0  0  0  0  0
   24.6570   34.2975   36.6650 O   0  0  0  0  0  0  0  0  0  0  0  0
   18.4532   26.2112   34.0241 C   0  0  2  0  0  0  0  0  0  0  0  0
   18.9184   27.6157   34.0554 O   0  0  0  0  0  0  0  0  0  0  0  0
   20.9535   29.1082   37.0804 C   0  0  2  0  0  0  0  0  0  0  0  0
   20.7218   30.0444   36.0298 O   0  0  0  0  0  0  0  0  0  0  0  0
   23.1894   32.4922   35.9073 C   0  0  0  0  0  0  0  0  0  0  0  0
   24.2084   31.4370   36.1224 O   0  0  0  0  0  0  0  0  0  0  0  0
   19.0551   25.5374   32.7575 C   0  0  2  0  0  0  0  0  0  0  0  0
   18.3249   25.9661   31.6029 O   0  0  0  0  0  0  0  0  0  0  0  0
   22.4737   29.0908   37.3755 C   0  0  1  0  0  0  0  0  0  0  0  0
   22.8543   30.4177   37.8327 O   0  0  0  0  0  0  0  0  0  0  0  0
   18.9768   24.0280   32.8215 C   0  0  0  0  0  0  0  0  0  0  0  0
   22.3109   34.7412   36.6484 C   0  0  0  0  0  0  0  0  0  0  0  0
   22.7519   33.9308   40.5253 C   0  0  0  0  0  0  0  0  0  0  0  0
  1  2  1  1  0  0  0
  1  6  1  0  0  0  0
  1 23  1  0  0  0  0
  3  4  1  6  0  0  0
  3  8  1  0  0  0  0
  3 30  1  0  0  0  0
  5  9  1  0  0  0  0
  5 27  1  0  0  0  0
  5 31  1  1  0  0  0
  6  7  1  1  0  0  0
  6 11  1  0  0  0  0
  8 13  1  0  0  0  0
  9 10  1  1  0  0  0
  9 15  1  0  0  0  0
 11 12  1  6  0  0  0
 11 17  1  0  0  0  0
 13 14  1  6  0  0  0
 13 19  1  0  0  0  0
 15 16  1  1  0  0  0
 15 20  1  0  0  0  0
 16 34  1  0  0  0  0
 17 18  1  1  0  0  0
 17 22  1  0  0  0  0
 19  2  1  1  0  0  0
 19 24  1  0  0  0  0
 20 21  1  6  0  0  0
 20 26  1  0  0  0  0
 20 33  1  0  0  0  0
 22 23  1  6  0  0  0
 22 28  1  0  0  0  0
 24 25  1  6  0  0  0
 24 30  1  0  0  0  0
 26 27  1  0  0  0  0
 28 29  1  6  0  0  0
 28 32  1  0  0  0  0
 30 31  1  1  0  0  0
M  END
>  <CHROM.1>
-174.49989392,-165.58200056,-93.13971619,45.86379462,97.16137857,-160.22056999
20.78566925,29.15010779,36.42890121,2.42044407,0.57951053,3.11208523

>  <Name>
ligand

>  <RI>
0

>  <Rbt.Current_Directory>
/home/itssahil/PROJECTS/Mol_Feturizer/New_Systems/rnas/4p3s

>  <Rbt.Executable>
rbdock ($Id: //depot/dev/client3/rdock/2013.1/src/exe/rbdock.cxx#4 $)

>  <Rbt.Library>
libRbt.so (2013.1, Build901 2013/11/27)

>  <Rbt.Parameter_File>
/export/apps/rDock/src/rDock_2013.1_src/data/scripts/dock_solv.prm

>  <Rbt.Receptor>
prm/pocket_docking_3.prm

>  <SCORE>
-19.0976

>  <SCORE.INTER>
-15.8504

>  <SCORE.INTER.CONST>
1

>  <SCORE.INTER.POLAR>
0

>  <SCORE.INTER.ROT>
6

>  <SCORE.INTER.SOLV>
21.4041

>  <SCORE.INTER.VDW>
-25.3016

>  <SCORE.INTER.norm>
-0.466187

>  <SCORE.INTRA>
-3.24722

>  <SCORE.INTRA.DIHEDRAL>
-6.62148

>  <SCORE.INTRA.DIHEDRAL.0>
15.8194

>  <SCORE.INTRA.POLAR>
0

>  <SCORE.INTRA.POLAR.0>
0

>  <SCORE.INTRA.REPUL>
0

>  <SCORE.INTRA.REPUL.0>
0

>  <SCORE.INTRA.SOLV>
-0.364262

>  <SCORE.INTRA.SOLV.lig_0>
-71.9159

>  <SCORE.INTRA.VDW>
0.245648

>  <SCORE.INTRA.VDW.0>
-3.53918

>  <SCORE.INTRA.norm>
-0.0955066

>  <SCORE.RESTR>
0

>  <SCORE.RESTR.CAVITY>
0

>  <SCORE.RESTR.norm>
0

>  <SCORE.SYSTEM>
0

>  <SCORE.SYSTEM.CONST>
0

>  <SCORE.SYSTEM.DIHEDRAL>
0

>  <SCORE.SYSTEM.SOLV>
0

>  <SCORE.SYSTEM.norm>
0

>  <SCORE.heavy>
34

>  <SCORE.norm>
-0.561694

>  <RMSD>
0.772

$$$$
ligand
 OpenBabel01301917533D
libRbt.so/2013.1/901 2013/11/27
 34 36  0  0  0  0  0  0  0  0999 V2000
   18.3693   28.1790   35.0314 C   0  0  2  0  0  0  0  0  0  0  0  0
   18.8724   27.5438   36.2110 O   0  0  0  0  0  0  0  0  0  0  0  0
   22.5515   27.6783   38.4129 C   0  0  2  0  0  0  0  0  0  0  0  0
   23.9730   27.5697   38.7679 N   0  0  0  0  0  0  0  0  0  0  0  0
   24.1033   30.5865   37.5029 C   0  0  2  0  0  0  0  0  0  0  0  0
   16.8372   28.4716   35.2503 C   0  0  2  0  0  0  0  0  0  0  0  0
   16.6302   29.3350   36.4241 N   0  0  0  0  0  0  0  0  0  0  0  0
   22.0893   26.2835   37.8560 C   0  0  0  0  0  0  0  0  0  0  0  0
   24.3571   31.7847   38.5006 C   0  0  2  0  0  0  0  0  0  0  0  0
   24.3619   31.3182   39.8388 O   0  0  0  0  0  0  0  0  0  0  0  0
   16.0535   27.1356   35.4234 C   0  0  1  0  0  0  0  0  0  0  0  0
   14.6524   27.3984   35.6240 O   0  0  0  0  0  0  0  0  0  0  0  0
   20.5662   26.3950   37.4953 C   0  0  2  0  0  0  0  0  0  0  0  0
   20.0587   25.1028   36.9521 N   0  0  0  0  0  0  0  0  0  0  0  0
   23.2101   32.8453   38.2960 C   0  0  1  0  0  0  0  0  0  0  0  0
   23.3694   33.9791   39.2288 N   0  0  0  0  0  0  0  0  0  0  0  0
   16.2960   26.2620   34.1704 C   0  0  2  0  0  0  0  0  0  0  0  0
   15.5741   25.0335   34.3038 O   0  0  0  0  0  0  0  0  0  0  0  0
   20.3272   27.5136   36.4365 C   0  0  2  0  0  0  0  0  0  0  0  0
   23.2405   33.3485   36.8181 C   0  0  1  0  0  0  0  0  0  0  0  0
   24.4945   33.9809   36.5840 O   0  0  0  0  0  0  0  0  0  0  0  0
   17.8576   26.0082   34.0184 C   0  0  2  0  0  0  0  0  0  0  0  0
   18.5864   27.2900   33.8924 O   0  0  0  0  0  0  0  0  0  0  0  0
   20.8561   28.8634   36.9930 C   0  0  2  0  0  0  0  0  0  0  0  0
   20.6544   29.8615   35.9946 O   0  0  0  0  0  0  0  0  0  0  0  0
   23.0751   32.1225   35.8638 C   0  0  0  0  0  0  0  0  0  0  0  0
   24.1152   31.0970   36.1179 O   0  0  0  0  0  0  0  0  0  0  0  0
   18.2053   25.1377   32.7768 C   0  0  2  0  0  0  0  0  0  0  0  0
   17.4423   23.9269   32.8209 O   0  0  0  0  0  0  0  0  0  0  0  0
   22.3716   28.8033   37.3064 C   0  0  1  0  0  0  0  0  0  0  0  0
   22.7673   30.0954   37.8435 O   0  0  0  0  0  0  0  0  0  0  0  0
   19.6700   24.7614   32.7349 C   0  0  0  0  0  0  0  0  0  0  0  0
   22.1393   34.3708   36.5331 C   0  0  0  0  0  0  0  0  0  0  0  0
   22.5932   33.6604   40.4522 C   0  0  0  0  0  0  0  0  0  0  0  0
  1  2  1  1  0  0  0
  1  6  1  0  0  0  0
  1 23  1  0  0  0  0
  3  4  1  6  0  0  0
  3  8  1  0  0  0  0
  3 30  1  0  0  0  0
  5  9  1  0  0  0  0
  5 27  1  0  0  0  0
  5 31  1  1  0  0  0
  6  7  1  1  0  0  0
  6 11  1  0  0  0  0
  8 13  1  0  0  0  0
  9 10  1  1  0  0  0
  9 15  1  0  0  0  0
 11 12  1  6  0  0  0
 11 17  1  0  0  0  0
 13 14  1  6  0  0  0
 13 19  1  0  0  0  0
 15 16  1  1  0  0  0
 15 20  1  0  0  0  0
 16 34  1  0  0  0  0
 17 18  1  1  0  0  0
 17 22  1  0  0  0  0
 19  2  1  1  0  0  0
 19 24  1  0  0  0  0
 20 21  1  6  0  0  0
 20 26  1  0  0  0  0
 20 33  1  0  0  0  0
 22 23  1  6  0  0  0
 22 28  1  0  0  0  0
 24 25  1  6  0  0  0
 24 30  1  0  0  0  0
 26 27  1  0  0  0  0
 28 29  1  1  0  0  0
 28 32  1  0  0  0  0
 30 31  1  1  0  0  0
M  END
>  <CHROM.1>
-162.46504843,-161.99276382,-91.44564242,-53.48331958,99.60746768,-166.25159755
20.58720853,28.94000667,36.40920452,2.36846497,0.42406355,-3.01899146

>  <Name>
ligand

>  <RI>
0

>  <Rbt.Current_Directory>
/home/itssahil/PROJECTS/Mol_Feturizer/New_Systems/rnas/4p3s

>  <Rbt.Executable>
rbdock ($Id: //depot/dev/client3/rdock/2013.1/src/exe/rbdock.cxx#4 $)

>  <Rbt.Library>
libRbt.so (2013.1, Build901 2013/11/27)

>  <Rbt.Parameter_File>
/export/apps/rDock/src/rDock_2013.1_src/data/scripts/dock_solv.prm

>  <Rbt.Receptor>
prm/pocket_docking_6.prm

>  <SCORE>
-18.5848

>  <SCORE.INTER>
-15.7044

>  <SCORE.INTER.CONST>
1

>  <SCORE.INTER.POLAR>
0

>  <SCORE.INTER.ROT>
6

>  <SCORE.INTER.SOLV>
19.7412

>  <SCORE.INTER.VDW>
-24.65

>  <SCORE.INTER.norm>
-0.461894

>  <SCORE.INTRA>
-2.88044

>  <SCORE.INTRA.DIHEDRAL>
-5.87426

>  <SCORE.INTRA.DIHEDRAL.0>
15.8194

>  <SCORE.INTRA.POLAR>
0

>  <SCORE.INTRA.POLAR.0>
0

>  <SCORE.INTRA.REPUL>
0

>  <SCORE.INTRA.REPUL.0>
0

>  <SCORE.INTRA.SOLV>
0.0695513

>  <SCORE.INTRA.SOLV.lig_0>
-71.9159

>  <SCORE.INTRA.VDW>
0.0219197

>  <SCORE.INTRA.VDW.0>
-3.53918

>  <SCORE.INTRA.norm>
-0.0847187

>  <SCORE.RESTR>
0

>  <SCORE.RESTR.CAVITY>
0

>  <SCORE.RESTR.norm>
0

>  <SCORE.SYSTEM>
0

>  <SCORE.SYSTEM.CONST>
0

>  <SCORE.SYSTEM.DIHEDRAL>
0

>  <SCORE.SYSTEM.SOLV>
0

>  <SCORE.SYSTEM.norm>
0

>  <SCORE.heavy>
34

>  <SCORE.norm>
-0.546612

>  <RMSD>
0.807

$$$$
ligand
 OpenBabel01301917533D
libRbt.so/2013.1/901 2013/11/27
 34 36  0  0  0  0  0  0  0  0999 V2000
   18.2268   28.3137   35.0285 C   0  0  2  0  0  0  0  0  0  0  0  0
   18.7653   27.6974   36.2026 O   0  0  0  0  0  0  0  0  0  0  0  0
   22.4936   27.9378   38.3106 C   0  0  2  0  0  0  0  0  0  0  0  0
   23.9241   27.8537   38.6351 N   0  0  0  0  0  0  0  0  0  0  0  0
   24.0601   30.7464   37.4372 C   0  0  2  0  0  0  0  0  0  0  0  0
   16.7044   28.6192   35.2924 C   0  0  2  0  0  0  0  0  0  0  0  0
   16.5409   29.5053   36.4561 N   0  0  0  0  0  0  0  0  0  0  0  0
   22.0322   26.5212   37.8110 C   0  0  0  0  0  0  0  0  0  0  0  0
   24.3267   31.8610   38.5244 C   0  0  2  0  0  0  0  0  0  0  0  0
   24.2049   31.3168   39.8273 O   0  0  0  0  0  0  0  0  0  0  0  0
   15.9198   27.2913   35.5160 C   0  0  1  0  0  0  0  0  0  0  0  0
   14.5275   27.5660   35.7577 O   0  0  0  0  0  0  0  0  0  0  0  0
   20.5000   26.6070   37.4832 C   0  0  2  0  0  0  0  0  0  0  0  0
   19.9925   25.2930   36.9951 N   0  0  0  0  0  0  0  0  0  0  0  0
   23.2741   33.0142   38.3136 C   0  0  1  0  0  0  0  0  0  0  0  0
   23.4466   34.0756   39.3257 N   0  0  0  0  0  0  0  0  0  0  0  0
   16.1162   26.3934   34.2721 C   0  0  2  0  0  0  0  0  0  0  0  0
   15.3927   25.1719   34.4520 O   0  0  0  0  0  0  0  0  0  0  0  0
   20.2252   27.6877   36.3942 C   0  0  2  0  0  0  0  0  0  0  0  0
   23.4432   33.6006   36.8763 C   0  0  1  0  0  0  0  0  0  0  0  0
   24.7519   34.1508   36.7661 O   0  0  0  0  0  0  0  0  0  0  0  0
   17.6705   26.1277   34.0734 C   0  0  2  0  0  0  0  0  0  0  0  0
   18.4015   27.4027   33.8997 O   0  0  0  0  0  0  0  0  0  0  0  0
   20.7539   29.0599   36.8933 C   0  0  2  0  0  0  0  0  0  0  0  0
   20.5190   30.0226   35.8677 O   0  0  0  0  0  0  0  0  0  0  0  0
   23.2597   32.4490   35.8363 C   0  0  0  0  0  0  0  0  0  0  0  0
   24.2049   31.3358   36.0917 O   0  0  0  0  0  0  0  0  0  0  0  0
   17.9724   25.2325   32.8374 C   0  0  2  0  0  0  0  0  0  0  0  0
   17.2391   24.0080   32.9514 O   0  0  0  0  0  0  0  0  0  0  0  0
   22.2768   29.0239   37.1723 C   0  0  1  0  0  0  0  0  0  0  0  0
   22.6724   30.3366   37.6571 O   0  0  0  0  0  0  0  0  0  0  0  0
   19.4408   24.8850   32.7286 C   0  0  0  0  0  0  0  0  0  0  0  0
   22.4392   34.7170   36.5859 C   0  0  0  0  0  0  0  0  0  0  0  0
   22.4522   33.8319   40.3992 C   0  0  0  0  0  0  0  0  0  0  0  0
  1  2  1  1  0  0  0
  1  6  1  0  0  0  0
  1 23  1  0  0  0  0
  3  4  1  6  0  0  0
  3  8  1  0  0  0  0
  3 30  1  0  0  0  0
  5  9  1  0  0  0  0
  5 27  1  0  0  0  0
  5 31  1  6  0  0  0
  6  7  1  1  0  0  0
  6 11  1  0  0  0  0
  8 13  1  0  0  0  0
  9 10  1  1  0  0  0
  9 15  1  0  0  0  0
 11 12  1  6  0  0  0
 11 17  1  0  0  0  0
 13 14  1  6  0  0  0
 13 19  1  0  0  0  0
 15 16  1  1  0  0  0
 15 20  1  0  0  0  0
 16 34  1  0  0  0  0
 17 18  1  1  0  0  0
 17 22  1  0  0  0  0
 19  2  1  1  0  0  0
 19 24  1  0  0  0  0
 20 21  1  6  0  0  0
 20 26  1  0  0  0  0
 20 33  1  0  0  0  0
 22 23  1  6  0  0  0
 22 28  1  0  0  0  0
 24 25  1  6  0  0  0
 24 30  1  0  0  0  0
 26 27  1  0  0  0  0
 28 29  1  1  0  0  0
 28 32  1  0  0  0  0
 30 31  1  1  0  0  0
M  END
>  <CHROM.1>
-161.19897668,-163.29786698,-97.99847933,-55.39306646,90.85946963,-157.86626003
20.52341535,29.11309858,36.41573818,2.36559322,0.37192481,-2.99215432

>  <Name>
ligand

>  <RI>
0

>  <Rbt.Current_Directory>
/home/itssahil/PROJECTS/Mol_Feturizer/New_Systems/rnas/4p3s

>  <Rbt.Executable>
rbdock ($Id: //depot/dev/client3/rdock/2013.1/src/exe/rbdock.cxx#4 $)

>  <Rbt.Library>
libRbt.so (2013.1, Build901 2013/11/27)

>  <Rbt.Parameter_File>
/export/apps/rDock/src/rDock_2013.1_src/data/scripts/dock_solv.prm

>  <Rbt.Receptor>
prm/pocket_docking_4.prm

>  <SCORE>
-19.092

>  <SCORE.INTER>
-16.1296

>  <SCORE.INTER.CONST>
1

>  <SCORE.INTER.POLAR>
0

>  <SCORE.INTER.ROT>
6

>  <SCORE.INTER.SOLV>
20.0041

>  <SCORE.INTER.VDW>
-25.0211

>  <SCORE.INTER.norm>
-0.474399

>  <SCORE.INTRA>
-2.96242

>  <SCORE.INTRA.DIHEDRAL>
-6.04227

>  <SCORE.INTRA.DIHEDRAL.0>
15.8194

>  <SCORE.INTRA.POLAR>
0

>  <SCORE.INTRA.POLAR.0>
0

>  <SCORE.INTRA.REPUL>
0

>  <SCORE.INTRA.REPUL.0>
0

>  <SCORE.INTRA.SOLV>
0.282995

>  <SCORE.INTRA.SOLV.lig_0>
-71.9159

>  <SCORE.INTRA.VDW>
-0.0827768

>  <SCORE.INTRA.VDW.0>
-3.53918

>  <SCORE.INTRA.norm>
-0.0871299

>  <SCORE.RESTR>
0

>  <SCORE.RESTR.CAVITY>
0

>  <SCORE.RESTR.norm>
0

>  <SCORE.SYSTEM>
0

>  <SCORE.SYSTEM.CONST>
0

>  <SCORE.SYSTEM.DIHEDRAL>
0

>  <SCORE.SYSTEM.SOLV>
0

>  <SCORE.SYSTEM.norm>
0

>  <SCORE.heavy>
34

>  <SCORE.norm>
-0.561528

>  <RMSD>
0.812

$$$$
ligand
 OpenBabel01301917533D
libRbt.so/2013.1/901 2013/11/27
 34 36  0  0  0  0  0  0  0  0999 V2000
   18.2802   28.3003   35.0107 C   0  0  2  0  0  0  0  0  0  0  0  0
   18.8062   27.6624   36.1789 O   0  0  0  0  0  0  0  0  0  0  0  0
   22.5132   27.9187   38.3224 C   0  0  2  0  0  0  0  0  0  0  0  0
   23.9398   27.8336   38.6632 N   0  0  0  0  0  0  0  0  0  0  0  0
   24.0949   30.7167   37.4033 C   0  0  2  0  0  0  0  0  0  0  0  0
   16.7603   28.6204   35.2721 C   0  0  2  0  0  0  0  0  0  0  0  0
   16.6022   29.4932   36.4466 N   0  0  0  0  0  0  0  0  0  0  0  0
   22.0509   26.4968   37.8391 C   0  0  0  0  0  0  0  0  0  0  0  0
   24.3673   31.8392   38.4807 C   0  0  2  0  0  0  0  0  0  0  0  0
   24.2549   31.3042   39.7883 O   0  0  0  0  0  0  0  0  0  0  0  0
   15.9591   27.2991   35.4751 C   0  0  1  0  0  0  0  0  0  0  0  0
   14.5692   27.5872   35.7146 O   0  0  0  0  0  0  0  0  0  0  0  0
   20.5227   26.5841   37.4938 C   0  0  2  0  0  0  0  0  0  0  0  0
   20.0147   25.2651   37.0199 N   0  0  0  0  0  0  0  0  0  0  0  0
   23.3119   32.9896   38.2688 C   0  0  1  0  0  0  0  0  0  0  0  0
   23.4898   34.0584   39.2723 N   0  0  0  0  0  0  0  0  0  0  0  0
   16.1503   26.4152   34.2205 C   0  0  2  0  0  0  0  0  0  0  0  0
   15.4117   25.2001   34.3814 O   0  0  0  0  0  0  0  0  0  0  0  0
   20.2640   27.6496   36.3861 C   0  0  2  0  0  0  0  0  0  0  0  0
   23.4707   33.5661   36.8263 C   0  0  1  0  0  0  0  0  0  0  0  0
   24.7779   34.1171   36.7036 O   0  0  0  0  0  0  0  0  0  0  0  0
   17.7023   26.1337   34.0248 C   0  0  2  0  0  0  0  0  0  0  0  0
   18.4490   27.4021   33.8709 O   0  0  0  0  0  0  0  0  0  0  0  0
   20.7933   29.0268   36.8702 C   0  0  2  0  0  0  0  0  0  0  0  0
   20.5734   29.9751   35.8281 O   0  0  0  0  0  0  0  0  0  0  0  0
   23.2817   32.4070   35.7957 C   0  0  0  0  0  0  0  0  0  0  0  0
   24.2300   31.2968   36.0527 O   0  0  0  0  0  0  0  0  0  0  0  0
   17.9990   25.2511   32.7785 C   0  0  2  0  0  0  0  0  0  0  0  0
   17.2193   24.0524   32.8529 O   0  0  0  0  0  0  0  0  0  0  0  0
   22.3130   28.9886   37.1659 C   0  0  1  0  0  0  0  0  0  0  0  0
   22.7091   30.3068   37.6353 O   0  0  0  0  0  0  0  0  0  0  0  0
   19.4558   24.8520   32.6948 C   0  0  0  0  0  0  0  0  0  0  0  0
   22.4634   34.6793   36.5347 C   0  0  0  0  0  0  0  0  0  0  0  0
   22.5469   33.7852   40.3845 C   0  0  0  0  0  0  0  0  0  0  0  0
  1  2  1  1  0  0  0
  1  6  1  0  0  0  0
  1 23  1  0  0  0  0
  3  4  1  6  0  0  0
  3  8  1  0  0  0  0
  3 30  1  0  0  0  0
  5  9  1  0  0  0  0
  5 27  1  0  0  0  0
  5 31  1  1  0  0  0
  6  7  1  1  0  0  0
  6 11  1  0  0  0  0
  8 13  1  0  0  0  0
  9 10  1  1  0  0  0
  9 15  1  0  0  0  0
 11 12  1  6  0  0  0
 11 17  1  0  0  0  0
 13 14  1  6  0  0  0
 13 19  1  0  0  0  0
 15 16  1  1  0  0  0
 15 20  1  0  0  0  0
 16 34  1  0  0  0  0
 17 18  1  1  0  0  0
 17 22  1  0  0  0  0
 19  2  1  1  0  0  0
 19 24  1  0  0  0  0
 20 21  1  6  0  0  0
 20 26  1  0  0  0  0
 20 33  1  0  0  0  0
 22 23  1  6  0  0  0
 22 28  1  0  0  0  0
 24 25  1  6  0  0  0
 24 30  1  0  0  0  0
 26 27  1  0  0  0  0
 28 29  1  1  0  0  0
 28 32  1  0  0  0  0
 30 31  1  1  0  0  0
M  END
>  <CHROM.1>
-160.34678434,-165.23077891,-95.38820953,-53.61863227,91.89421334,-157.69029369
20.55796196,29.09605635,36.38516616,2.37755233,0.39299939,-3.01290188

>  <Name>
ligand

>  <RI>
0

>  <Rbt.Current_Directory>
/home/itssahil/PROJECTS/Mol_Feturizer/New_Systems/rnas/4p3s

>  <Rbt.Executable>
rbdock ($Id: //depot/dev/client3/rdock/2013.1/src/exe/rbdock.cxx#4 $)

>  <Rbt.Library>
libRbt.so (2013.1, Build901 2013/11/27)

>  <Rbt.Parameter_File>
/export/apps/rDock/src/rDock_2013.1_src/data/scripts/dock_solv.prm

>  <Rbt.Receptor>
prm/pocket_docking_4.prm

>  <SCORE>
-19.0837

>  <SCORE.INTER>
-16.2593

>  <SCORE.INTER.CONST>
1

>  <SCORE.INTER.POLAR>
0

>  <SCORE.INTER.ROT>
6

>  <SCORE.INTER.SOLV>
20.37

>  <SCORE.INTER.VDW>
-25.2295

>  <SCORE.INTER.norm>
-0.478214

>  <SCORE.INTRA>
-2.82445

>  <SCORE.INTRA.DIHEDRAL>
-5.95573

>  <SCORE.INTRA.DIHEDRAL.0>
15.8194

>  <SCORE.INTRA.POLAR>
0

>  <SCORE.INTRA.POLAR.0>
0

>  <SCORE.INTRA.REPUL>
0

>  <SCORE.INTRA.REPUL.0>
0

>  <SCORE.INTRA.SOLV>
0.217956

>  <SCORE.INTRA.SOLV.lig_0>
-71.9159

>  <SCORE.INTRA.VDW>
0.0444386

>  <SCORE.INTRA.VDW.0>
-3.53918

>  <SCORE.INTRA.norm>
-0.0830721

>  <SCORE.RESTR>
0

>  <SCORE.RESTR.CAVITY>
0

>  <SCORE.RESTR.norm>
0

>  <SCORE.SYSTEM>
0

>  <SCORE.SYSTEM.CONST>
0

>  <SCORE.SYSTEM.DIHEDRAL>
0

>  <SCORE.SYSTEM.SOLV>
0

>  <SCORE.SYSTEM.norm>
0

>  <SCORE.heavy>
34

>  <SCORE.norm>
-0.561286

>  <RMSD>
0.813

$$$$
ligand
 OpenBabel01301917533D
libRbt.so/2013.1/901 2013/11/27
 34 36  0  0  0  0  0  0  0  0999 V2000
   18.5094   27.8757   35.0851 C   0  0  2  0  0  0  0  0  0  0  0  0
   18.9902   27.4035   36.3477 O   0  0  0  0  0  0  0  0  0  0  0  0
   22.6184   27.7029   38.6168 C   0  0  2  0  0  0  0  0  0  0  0  0
   24.0338   27.6373   39.0051 N   0  0  0  0  0  0  0  0  0  0  0  0
   24.1754   30.5481   37.7262 C   0  0  2  0  0  0  0  0  0  0  0  0
   16.9414   27.9953   35.1739 C   0  0  2  0  0  0  0  0  0  0  0  0
   16.5454   28.9183   36.2497 N   0  0  0  0  0  0  0  0  0  0  0  0
   22.1944   26.2771   38.1103 C   0  0  0  0  0  0  0  0  0  0  0  0
   24.3717   31.7520   38.7299 C   0  0  2  0  0  0  0  0  0  0  0  0
   24.2426   31.3033   40.0680 O   0  0  0  0  0  0  0  0  0  0  0  0
   16.3072   26.5917   35.4120 C   0  0  1  0  0  0  0  0  0  0  0  0
   14.8738   26.6964   35.4940 O   0  0  0  0  0  0  0  0  0  0  0  0
   20.6776   26.3434   37.7141 C   0  0  2  0  0  0  0  0  0  0  0  0
   20.2060   25.0197   37.2161 N   0  0  0  0  0  0  0  0  0  0  0  0
   23.2780   32.8403   38.4110 C   0  0  1  0  0  0  0  0  0  0  0  0
   23.3841   33.9816   39.3421 N   0  0  0  0  0  0  0  0  0  0  0  0
   16.7457   25.6567   34.2607 C   0  0  2  0  0  0  0  0  0  0  0  0
   16.1633   24.3638   34.4540 O   0  0  0  0  0  0  0  0  0  0  0  0
   20.4402   27.4114   36.6040 C   0  0  2  0  0  0  0  0  0  0  0  0
   23.4557   33.3230   36.9366 C   0  0  1  0  0  0  0  0  0  0  0  0
   24.7429   33.9183   36.8102 O   0  0  0  0  0  0  0  0  0  0  0  0
   18.3332   25.5845   34.2370 C   0  0  2  0  0  0  0  0  0  0  0  0
   18.9157   26.9316   34.0468 O   0  0  0  0  0  0  0  0  0  0  0  0
   20.9318   28.7936   37.1133 C   0  0  2  0  0  0  0  0  0  0  0  0
   20.7327   29.7446   36.0694 O   0  0  0  0  0  0  0  0  0  0  0  0
   23.3428   32.0894   35.9843 C   0  0  0  0  0  0  0  0  0  0  0  0
   24.3266   31.0397   36.3426 O   0  0  0  0  0  0  0  0  0  0  0  0
   18.8746   24.6663   33.1038 C   0  0  2  0  0  0  0  0  0  0  0  0
   20.2989   24.5696   33.2150 O   0  0  0  0  0  0  0  0  0  0  0  0
   22.4411   28.7766   37.4600 C   0  0  1  0  0  0  0  0  0  0  0  0
   22.8009   30.0977   37.9496 O   0  0  0  0  0  0  0  0  0  0  0  0
   18.5526   25.2064   31.7279 C   0  0  0  0  0  0  0  0  0  0  0  0
   22.4138   34.3708   36.5421 C   0  0  0  0  0  0  0  0  0  0  0  0
   22.3120   33.8291   40.3560 C   0  0  0  0  0  0  0  0  0  0  0  0
  1  2  1  1  0  0  0
  1  6  1  0  0  0  0
  1 23  1  0  0  0  0
  3  4  1  6  0  0  0
  3  8  1  0  0  0  0
  3 30  1  0  0  0  0
  5  9  1  0  0  0  0
  5 27  1  0  0  0  0
  5 31  1  6  0  0  0
  6  7  1  1  0  0  0
  6 11  1  0  0  0  0
  8 13  1  0  0  0  0
  9 10  1  1  0  0  0
  9 15  1  0  0  0  0
 11 12  1  6  0  0  0
 11 17  1  0  0  0  0
 13 14  1  6  0  0  0
 13 19  1  0  0  0  0
 15 16  1  1  0  0  0
 15 20  1  0  0  0  0
 16 34  1  0  0  0  0
 17 18  1  1  0  0  0
 17 22  1  0  0  0  0
 19  2  1  1  0  0  0
 19 24  1  0  0  0  0
 20 21  1  6  0  0  0
 20 26  1  0  0  0  0
 20 33  1  0  0  0  0
 22 23  1  6  0  0  0
 22 28  1  0  0  0  0
 24 25  1  6  0  0  0
 24 30  1  0  0  0  0
 26 27  1  0  0  0  0
 28 29  1  6  0  0  0
 28 32  1  0  0  0  0
 30 31  1  1  0  0  0
M  END
>  <CHROM.1>
-170.19596484,-156.81315634,-102.01436139,-175.44680065,93.93031427,-162.78675856
20.79581540,28.81181871,36.50834479,2.33958961,0.46791518,-3.04115405

>  <Name>
ligand

>  <RI>
0

>  <Rbt.Current_Directory>
/home/itssahil/PROJECTS/Mol_Feturizer/New_Systems/rnas/4p3s

>  <Rbt.Executable>
rbdock ($Id: //depot/dev/client3/rdock/2013.1/src/exe/rbdock.cxx#4 $)

>  <Rbt.Library>
libRbt.so (2013.1, Build901 2013/11/27)

>  <Rbt.Parameter_File>
/export/apps/rDock/src/rDock_2013.1_src/data/scripts/dock_solv.prm

>  <Rbt.Receptor>
prm/pocket_docking_4.prm

>  <SCORE>
-18.6575

>  <SCORE.INTER>
-15.4049

>  <SCORE.INTER.CONST>
1

>  <SCORE.INTER.POLAR>
0

>  <SCORE.INTER.ROT>
6

>  <SCORE.INTER.SOLV>
21.5024

>  <SCORE.INTER.VDW>
-25.0374

>  <SCORE.INTER.norm>
-0.453087

>  <SCORE.INTRA>
-3.25253

>  <SCORE.INTRA.DIHEDRAL>
-6.25251

>  <SCORE.INTRA.DIHEDRAL.0>
15.8194

>  <SCORE.INTRA.POLAR>
0

>  <SCORE.INTRA.POLAR.0>
0

>  <SCORE.INTRA.REPUL>
0

>  <SCORE.INTRA.REPUL.0>
0

>  <SCORE.INTRA.SOLV>
-0.105478

>  <SCORE.INTRA.SOLV.lig_0>
-71.9159

>  <SCORE.INTRA.VDW>
-0.0735356

>  <SCORE.INTRA.VDW.0>
-3.53918

>  <SCORE.INTRA.norm>
-0.0956626

>  <SCORE.RESTR>
0

>  <SCORE.RESTR.CAVITY>
0

>  <SCORE.RESTR.norm>
0

>  <SCORE.SYSTEM>
0

>  <SCORE.SYSTEM.CONST>
0

>  <SCORE.SYSTEM.DIHEDRAL>
0

>  <SCORE.SYSTEM.SOLV>
0

>  <SCORE.SYSTEM.norm>
0

>  <SCORE.heavy>
34

>  <SCORE.norm>
-0.548749

>  <RMSD>
0.844

$$$$
ligand
 OpenBabel01301917533D
libRbt.so/2013.1/901 2013/11/27
 34 36  0  0  0  0  0  0  0  0999 V2000
   18.3134   28.1801   35.0849 C   0  0  2  0  0  0  0  0  0  0  0  0
   18.8333   27.5209   36.2439 O   0  0  0  0  0  0  0  0  0  0  0  0
   22.5297   27.6800   38.4150 C   0  0  2  0  0  0  0  0  0  0  0  0
   23.9550   27.5820   38.7578 N   0  0  0  0  0  0  0  0  0  0  0  0
   24.0715   30.5766   37.5456 C   0  0  2  0  0  0  0  0  0  0  0  0
   16.7994   28.5200   35.3548 C   0  0  2  0  0  0  0  0  0  0  0  0
   16.6580   29.3814   36.5397 N   0  0  0  0  0  0  0  0  0  0  0  0
   22.0739   26.2828   37.8590 C   0  0  0  0  0  0  0  0  0  0  0  0
   24.3070   31.7784   38.5434 C   0  0  2  0  0  0  0  0  0  0  0  0
   24.2677   31.3202   39.8839 O   0  0  0  0  0  0  0  0  0  0  0  0
   15.9790   27.2086   35.5452 C   0  0  1  0  0  0  0  0  0  0  0  0
   14.5942   27.5148   35.7924 O   0  0  0  0  0  0  0  0  0  0  0  0
   20.5470   26.3829   37.5113 C   0  0  2  0  0  0  0  0  0  0  0  0
   20.0452   25.0879   36.9696 N   0  0  0  0  0  0  0  0  0  0  0  0
   23.1767   32.8483   38.2986 C   0  0  1  0  0  0  0  0  0  0  0  0
   23.3189   33.9863   39.2291 N   0  0  0  0  0  0  0  0  0  0  0  0
   16.1530   26.3364   34.2799 C   0  0  2  0  0  0  0  0  0  0  0  0
   15.3965   25.1308   34.4292 O   0  0  0  0  0  0  0  0  0  0  0  0
   20.2902   27.5018   36.4571 C   0  0  2  0  0  0  0  0  0  0  0  0
   23.2556   33.3422   36.8194 C   0  0  1  0  0  0  0  0  0  0  0  0
   24.5219   33.9615   36.6189 O   0  0  0  0  0  0  0  0  0  0  0  0
   17.6999   26.0339   34.0761 C   0  0  2  0  0  0  0  0  0  0  0  0
   18.4652   27.2925   33.9343 O   0  0  0  0  0  0  0  0  0  0  0  0
   20.8131   28.8546   37.0121 C   0  0  2  0  0  0  0  0  0  0  0  0
   20.5950   29.8533   36.0177 O   0  0  0  0  0  0  0  0  0  0  0  0
   23.1070   32.1119   35.8677 C   0  0  0  0  0  0  0  0  0  0  0  0
   24.1294   31.0784   36.1587 O   0  0  0  0  0  0  0  0  0  0  0  0
   17.9795   25.1613   32.8188 C   0  0  2  0  0  0  0  0  0  0  0  0
   17.2053   23.9593   32.8971 O   0  0  0  0  0  0  0  0  0  0  0  0
   22.3315   28.8059   37.3126 C   0  0  1  0  0  0  0  0  0  0  0  0
   22.7214   30.1000   37.8492 O   0  0  0  0  0  0  0  0  0  0  0  0
   19.4361   24.7681   32.7086 C   0  0  0  0  0  0  0  0  0  0  0  0
   22.1731   34.3730   36.4958 C   0  0  0  0  0  0  0  0  0  0  0  0
   22.3950   33.7494   40.3654 C   0  0  0  0  0  0  0  0  0  0  0  0
  1  2  1  1  0  0  0
  1  6  1  0  0  0  0
  1 23  1  0  0  0  0
  3  4  1  6  0  0  0
  3  8  1  0  0  0  0
  3 30  1  0  0  0  0
  5  9  1  0  0  0  0
  5 27  1  0  0  0  0
  5 31  1  1  0  0  0
  6  7  1  1  0  0  0
  6 11  1  0  0  0  0
  8 13  1  0  0  0  0
  9 10  1  1  0  0  0
  9 15  1  0  0  0  0
 11 12  1  6  0  0  0
 11 17  1  0  0  0  0
 13 14  1  6  0  0  0
 13 19  1  0  0  0  0
 15 16  1  1  0  0  0
 15 20  1  0  0  0  0
 16 34  1  0  0  0  0
 17 18  1  1  0  0  0
 17 22  1  0  0  0  0
 19  2  1  1  0  0  0
 19 24  1  0  0  0  0
 20 21  1  6  0  0  0
 20 26  1  0  0  0  0
 20 33  1  0  0  0  0
 22 23  1  6  0  0  0
 22 28  1  0  0  0  0
 24 25  1  6  0  0  0
 24 30  1  0  0  0  0
 26 27  1  0  0  0  0
 28 29  1  1  0  0  0
 28 32  1  0  0  0  0
 30 31  1  1  0  0  0
M  END
>  <CHROM.1>
-159.40961270,-163.34246196,-97.25631168,-54.94623406,97.06236102,-166.01279358
20.52178343,28.95571643,36.44526382,2.37257039,0.40326817,-3.01155114

>  <Name>
ligand

>  <RI>
0

>  <Rbt.Current_Directory>
/home/itssahil/PROJECTS/Mol_Feturizer/New_Systems/rnas/4p3s

>  <Rbt.Executable>
rbdock ($Id: //depot/dev/client3/rdock/2013.1/src/exe/rbdock.cxx#4 $)

>  <Rbt.Library>
libRbt.so (2013.1, Build901 2013/11/27)

>  <Rbt.Parameter_File>
/export/apps/rDock/src/rDock_2013.1_src/data/scripts/dock_solv.prm

>  <Rbt.Receptor>
prm/pocket_docking_8.prm

>  <SCORE>
-18.872

>  <SCORE.INTER>
-15.7798

>  <SCORE.INTER.CONST>
1

>  <SCORE.INTER.POLAR>
0

>  <SCORE.INTER.ROT>
6

>  <SCORE.INTER.SOLV>
19.645

>  <SCORE.INTER.VDW>
-24.6682

>  <SCORE.INTER.norm>
-0.464111

>  <SCORE.INTRA>
-3.10245

>  <SCORE.INTRA.DIHEDRAL>
-5.87455

>  <SCORE.INTRA.DIHEDRAL.0>
15.8194

>  <SCORE.INTRA.POLAR>
0

>  <SCORE.INTRA.POLAR.0>
0

>  <SCORE.INTRA.REPUL>
0

>  <SCORE.INTRA.REPUL.0>
0

>  <SCORE.INTRA.SOLV>
0.0537345

>  <SCORE.INTRA.SOLV.lig_0>
-71.9159

>  <SCORE.INTRA.VDW>
-0.192038

>  <SCORE.INTRA.VDW.0>
-3.53918

>  <SCORE.INTRA.norm>
-0.0912484

>  <SCORE.RESTR>
0.0101795

>  <SCORE.RESTR.CAVITY>
0.0101795

>  <SCORE.RESTR.norm>
0.000299398

>  <SCORE.SYSTEM>
0

>  <SCORE.SYSTEM.CONST>
0

>  <SCORE.SYSTEM.DIHEDRAL>
0

>  <SCORE.SYSTEM.SOLV>
0

>  <SCORE.SYSTEM.norm>
0

>  <SCORE.heavy>
34

>  <SCORE.norm>
-0.55506

>  <RMSD>
0.848

$$$$
ligand
 OpenBabel01301917533D
libRbt.so/2013.1/901 2013/11/27
 34 36  0  0  0  0  0  0  0  0999 V2000
   18.4102   27.7978   34.9815 C   0  0  2  0  0  0  0  0  0  0  0  0
   18.8999   27.3826   36.2605 O   0  0  0  0  0  0  0  0  0  0  0  0
   22.5379   27.6788   38.5142 C   0  0  2  0  0  0  0  0  0  0  0  0
   23.9568   27.6257   38.8918 N   0  0  0  0  0  0  0  0  0  0  0  0
   24.0614   30.5428   37.7542 C   0  0  2  0  0  0  0  0  0  0  0  0
   16.8374   27.8426   35.0523 C   0  0  2  0  0  0  0  0  0  0  0  0
   16.3854   28.7725   36.0996 N   0  0  0  0  0  0  0  0  0  0  0  0
   22.1336   26.2607   37.9715 C   0  0  0  0  0  0  0  0  0  0  0  0
   24.2032   31.7632   38.7471 C   0  0  2  0  0  0  0  0  0  0  0  0
   24.0038   31.3360   40.0837 O   0  0  0  0  0  0  0  0  0  0  0  0
   16.2699   26.4162   35.3214 C   0  0  1  0  0  0  0  0  0  0  0  0
   14.8323   26.4526   35.3871 O   0  0  0  0  0  0  0  0  0  0  0  0
   20.6133   26.3130   37.5867 C   0  0  2  0  0  0  0  0  0  0  0  0
   20.1598   24.9960   37.0555 N   0  0  0  0  0  0  0  0  0  0  0  0
   23.1269   32.8442   38.3531 C   0  0  1  0  0  0  0  0  0  0  0  0
   23.1825   34.0007   39.2698 N   0  0  0  0  0  0  0  0  0  0  0  0
   16.7657   25.4743   34.1994 C   0  0  2  0  0  0  0  0  0  0  0  0
   16.2451   24.1599   34.4212 O   0  0  0  0  0  0  0  0  0  0  0  0
   20.3513   27.4070   36.5079 C   0  0  2  0  0  0  0  0  0  0  0  0
   23.3819   33.3033   36.8825 C   0  0  1  0  0  0  0  0  0  0  0  0
   24.6735   33.8987   36.8147 O   0  0  0  0  0  0  0  0  0  0  0  0
   18.3550   25.4795   34.1925 C   0  0  2  0  0  0  0  0  0  0  0  0
   18.8731   26.8481   33.9723 O   0  0  0  0  0  0  0  0  0  0  0  0
   20.8240   28.7826   37.0518 C   0  0  2  0  0  0  0  0  0  0  0  0
   20.6026   29.7585   36.0357 O   0  0  0  0  0  0  0  0  0  0  0  0
   23.3208   32.0541   35.9458 C   0  0  0  0  0  0  0  0  0  0  0  0
   24.2852   31.0121   36.3727 O   0  0  0  0  0  0  0  0  0  0  0  0
   18.9527   24.5599   33.0890 C   0  0  2  0  0  0  0  0  0  0  0  0
   20.3788   24.5383   33.2143 O   0  0  0  0  0  0  0  0  0  0  0  0
   22.3356   28.7807   37.3884 C   0  0  1  0  0  0  0  0  0  0  0  0
   22.6774   30.0936   37.9119 O   0  0  0  0  0  0  0  0  0  0  0  0
   18.6170   25.0462   31.6964 C   0  0  0  0  0  0  0  0  0  0  0  0
   22.3614   34.3426   36.4164 C   0  0  0  0  0  0  0  0  0  0  0  0
   22.1060   33.8231   40.2750 C   0  0  0  0  0  0  0  0  0  0  0  0
  1  2  1  1  0  0  0
  1  6  1  0  0  0  0
  1 23  1  0  0  0  0
  3  4  1  6  0  0  0
  3  8  1  0  0  0  0
  3 30  1  0  0  0  0
  5  9  1  0  0  0  0
  5 27  1  0  0  0  0
  5 31  1  6  0  0  0
  6  7  1  1  0  0  0
  6 11  1  0  0  0  0
  8 13  1  0  0  0  0
  9 10  1  1  0  0  0
  9 15  1  0  0  0  0
 11 12  1  6  0  0  0
 11 17  1  0  0  0  0
 13 14  1  6  0  0  0
 13 19  1  0  0  0  0
 15 16  1  1  0  0  0
 15 20  1  0  0  0  0
 16 34  1  0  0  0  0
 17 18  1  1  0  0  0
 17 22  1  0  0  0  0
 19  2  1  1  0  0  0
 19 24  1  0  0  0  0
 20 21  1  6  0  0  0
 20 26  1  0  0  0  0
 20 33  1  0  0  0  0
 22 23  1  6  0  0  0
 22 28  1  0  0  0  0
 24 25  1  6  0  0  0
 24 30  1  0  0  0  0
 26 27  1  0  0  0  0
 28 29  1  6  0  0  0
 28 32  1  0  0  0  0
 30 31  1  1  0  0  0
M  END
>  <CHROM.1>
-173.10133043,-152.69913951,-98.86101581,-175.56501596,90.79952914,-164.63845821
20.72416043,28.75655618,36.44491606,2.30343698,0.43401854,-2.99883001

>  <Name>
ligand

>  <RI>
0

>  <Rbt.Current_Directory>
/home/itssahil/PROJECTS/Mol_Feturizer/New_Systems/rnas/4p3s

>  <Rbt.Executable>
rbdock ($Id: //depot/dev/client3/rdock/2013.1/src/exe/rbdock.cxx#4 $)

>  <Rbt.Library>
libRbt.so (2013.1, Build901 2013/11/27)

>  <Rbt.Parameter_File>
/export/apps/rDock/src/rDock_2013.1_src/data/scripts/dock_solv.prm

>  <Rbt.Receptor>
prm/pocket_docking_4.prm

>  <SCORE>
-18.5416

>  <SCORE.INTER>
-15.3346

>  <SCORE.INTER.CONST>
1

>  <SCORE.INTER.POLAR>
0

>  <SCORE.INTER.ROT>
6

>  <SCORE.INTER.SOLV>
21.2739

>  <SCORE.INTER.VDW>
-24.9144

>  <SCORE.INTER.norm>
-0.451019

>  <SCORE.INTRA>
-3.20701

>  <SCORE.INTRA.DIHEDRAL>
-6.65821

>  <SCORE.INTRA.DIHEDRAL.0>
15.8194

>  <SCORE.INTRA.POLAR>
0

>  <SCORE.INTRA.POLAR.0>
0

>  <SCORE.INTRA.REPUL>
0

>  <SCORE.INTRA.REPUL.0>
0

>  <SCORE.INTRA.SOLV>
0.331115

>  <SCORE.INTRA.SOLV.lig_0>
-71.9159

>  <SCORE.INTRA.VDW>
-0.0434644

>  <SCORE.INTRA.VDW.0>
-3.53918

>  <SCORE.INTRA.norm>
-0.0943239

>  <SCORE.RESTR>
0

>  <SCORE.RESTR.CAVITY>
0

>  <SCORE.RESTR.norm>
0

>  <SCORE.SYSTEM>
0

>  <SCORE.SYSTEM.CONST>
0

>  <SCORE.SYSTEM.DIHEDRAL>
0

>  <SCORE.SYSTEM.SOLV>
0

>  <SCORE.SYSTEM.norm>
0

>  <SCORE.heavy>
34

>  <SCORE.norm>
-0.545343

>  <RMSD>
0.873

$$$$
ligand
 OpenBabel01301917533D
libRbt.so/2013.1/901 2013/11/27
 34 36  0  0  0  0  0  0  0  0999 V2000
   18.3022   28.2278   35.0596 C   0  0  2  0  0  0  0  0  0  0  0  0
   18.8119   27.5611   36.2189 O   0  0  0  0  0  0  0  0  0  0  0  0
   22.5065   27.6702   38.3961 C   0  0  2  0  0  0  0  0  0  0  0  0
   23.9299   27.5537   38.7410 N   0  0  0  0  0  0  0  0  0  0  0  0
   24.0967   30.5338   37.5622 C   0  0  2  0  0  0  0  0  0  0  0  0
   16.7778   28.5379   35.3058 C   0  0  2  0  0  0  0  0  0  0  0  0
   16.5995   29.3797   36.4998 N   0  0  0  0  0  0  0  0  0  0  0  0
   22.0343   26.2798   37.8368 C   0  0  0  0  0  0  0  0  0  0  0  0
   24.3332   31.7376   38.5574 C   0  0  2  0  0  0  0  0  0  0  0  0
   24.2504   31.2901   39.8995 O   0  0  0  0  0  0  0  0  0  0  0  0
   15.9769   27.2100   35.4623 C   0  0  1  0  0  0  0  0  0  0  0  0
   14.5827   27.4888   35.6878 O   0  0  0  0  0  0  0  0  0  0  0  0
   20.5093   26.3995   37.4869 C   0  0  2  0  0  0  0  0  0  0  0  0
   19.9922   25.1119   36.9421 N   0  0  0  0  0  0  0  0  0  0  0  0
   23.2328   32.8297   38.2770 C   0  0  1  0  0  0  0  0  0  0  0  0
   23.3763   33.9712   39.2030 N   0  0  0  0  0  0  0  0  0  0  0  0
   16.1895   26.3591   34.1884 C   0  0  2  0  0  0  0  0  0  0  0  0
   15.4515   25.1387   34.3066 O   0  0  0  0  0  0  0  0  0  0  0  0
   20.2681   27.5235   36.4343 C   0  0  2  0  0  0  0  0  0  0  0  0
   23.3593   33.3109   36.7969 C   0  0  1  0  0  0  0  0  0  0  0  0
   24.6434   33.9013   36.6241 O   0  0  0  0  0  0  0  0  0  0  0  0
   17.7450   26.0861   34.0095 C   0  0  2  0  0  0  0  0  0  0  0  0
   18.4908   27.3596   33.8998 O   0  0  0  0  0  0  0  0  0  0  0  0
   20.8070   28.8686   36.9926 C   0  0  2  0  0  0  0  0  0  0  0  0
   20.6030   29.8717   35.9996 O   0  0  0  0  0  0  0  0  0  0  0  0
   23.2079   32.0771   35.8502 C   0  0  0  0  0  0  0  0  0  0  0  0
   24.2000   31.0240   36.1737 O   0  0  0  0  0  0  0  0  0  0  0  0
   18.0630   25.2366   32.7456 C   0  0  2  0  0  0  0  0  0  0  0  0
   17.2462   24.0606   32.7499 O   0  0  0  0  0  0  0  0  0  0  0  0
   22.3242   28.8004   37.2954 C   0  0  1  0  0  0  0  0  0  0  0  0
   22.7294   30.0886   37.8350 O   0  0  0  0  0  0  0  0  0  0  0  0
   19.5096   24.7961   32.7023 C   0  0  0  0  0  0  0  0  0  0  0  0
   22.3078   34.3623   36.4392 C   0  0  0  0  0  0  0  0  0  0  0  0
   22.4481   33.7427   40.3374 C   0  0  0  0  0  0  0  0  0  0  0  0
  1  2  1  1  0  0  0
  1  6  1  0  0  0  0
  1 23  1  0  0  0  0
  3  4  1  6  0  0  0
  3  8  1  0  0  0  0
  3 30  1  0  0  0  0
  5  9  1  0  0  0  0
  5 27  1  0  0  0  0
  5 31  1  6  0  0  0
  6  7  1  1  0  0  0
  6 11  1  0  0  0  0
  8 13  1  0  0  0  0
  9 10  1  1  0  0  0
  9 15  1  0  0  0  0
 11 12  1  6  0  0  0
 11 17  1  0  0  0  0
 13 14  1  6  0  0  0
 13 19  1  0  0  0  0
 15 16  1  1  0  0  0
 15 20  1  0  0  0  0
 16 34  1  0  0  0  0
 17 18  1  1  0  0  0
 17 22  1  0  0  0  0
 19  2  1  1  0  0  0
 19 24  1  0  0  0  0
 20 21  1  6  0  0  0
 20 26  1  0  0  0  0
 20 33  1  0  0  0  0
 22 23  1  6  0  0  0
 22 28  1  0  0  0  0
 24 25  1  6  0  0  0
 24 30  1  0  0  0  0
 26 27  1  0  0  0  0
 28 29  1  1  0  0  0
 28 32  1  0  0  0  0
 30 31  1  1  0  0  0
M  END
>  <CHROM.1>
-161.52407091,-163.29088357,-95.62997179,-51.32318360,95.58880219,-166.12629295
20.54502099,28.95939924,36.41030070,2.38259937,0.40969661,-3.01265822

>  <Name>
ligand

>  <RI>
0

>  <Rbt.Current_Directory>
/home/itssahil/PROJECTS/Mol_Feturizer/New_Systems/rnas/4p3s

>  <Rbt.Executable>
rbdock ($Id: //depot/dev/client3/rdock/2013.1/src/exe/rbdock.cxx#4 $)

>  <Rbt.Library>
libRbt.so (2013.1, Build901 2013/11/27)

>  <Rbt.Parameter_File>
/export/apps/rDock/src/rDock_2013.1_src/data/scripts/dock_solv.prm

>  <Rbt.Receptor>
prm/pocket_docking_8.prm

>  <SCORE>
-18.8436

>  <SCORE.INTER>
-15.5952

>  <SCORE.INTER.CONST>
1

>  <SCORE.INTER.POLAR>
0

>  <SCORE.INTER.ROT>
6

>  <SCORE.INTER.SOLV>
20.1487

>  <SCORE.INTER.VDW>
-24.713

>  <SCORE.INTER.norm>
-0.458681

>  <SCORE.INTRA>
-3.25511

>  <SCORE.INTRA.DIHEDRAL>
-6.34194

>  <SCORE.INTRA.DIHEDRAL.0>
15.8194

>  <SCORE.INTRA.POLAR>
0

>  <SCORE.INTRA.POLAR.0>
0

>  <SCORE.INTRA.REPUL>
0

>  <SCORE.INTRA.REPUL.0>
0

>  <SCORE.INTRA.SOLV>
0.0364239

>  <SCORE.INTRA.SOLV.lig_0>
-71.9159

>  <SCORE.INTRA.VDW>
-0.102346

>  <SCORE.INTRA.VDW.0>
-3.53918

>  <SCORE.INTRA.norm>
-0.0957384

>  <SCORE.RESTR>
0.00662305

>  <SCORE.RESTR.CAVITY>
0.00662305

>  <SCORE.RESTR.norm>
0.000194796

>  <SCORE.SYSTEM>
0

>  <SCORE.SYSTEM.CONST>
0

>  <SCORE.SYSTEM.DIHEDRAL>
0

>  <SCORE.SYSTEM.SOLV>
0

>  <SCORE.SYSTEM.norm>
0

>  <SCORE.heavy>
34

>  <SCORE.norm>
-0.554225

>  <RMSD>
0.878

$$$$
ligand
 OpenBabel01301917533D
libRbt.so/2013.1/901 2013/11/27
 34 36  0  0  0  0  0  0  0  0999 V2000
   18.4085   28.1898   35.2536 C   0  0  2  0  0  0  0  0  0  0  0  0
   18.9390   27.5359   36.4109 O   0  0  0  0  0  0  0  0  0  0  0  0
   22.6499   27.7063   38.5561 C   0  0  2  0  0  0  0  0  0  0  0  0
   24.0780   27.6137   38.8886 N   0  0  0  0  0  0  0  0  0  0  0  0
   24.1720   30.6129   37.6789 C   0  0  2  0  0  0  0  0  0  0  0  0
   16.8373   28.1755   35.3623 C   0  0  2  0  0  0  0  0  0  0  0  0
   16.3896   28.8590   36.5864 N   0  0  0  0  0  0  0  0  0  0  0  0
   22.1962   26.3083   38.0004 C   0  0  0  0  0  0  0  0  0  0  0  0
   24.4071   31.8190   38.6715 C   0  0  2  0  0  0  0  0  0  0  0  0
   24.3809   31.3643   40.0136 O   0  0  0  0  0  0  0  0  0  0  0  0
   16.3099   26.7090   35.3445 C   0  0  1  0  0  0  0  0  0  0  0  0
   14.8739   26.6912   35.4438 O   0  0  0  0  0  0  0  0  0  0  0  0
   20.6665   26.4026   37.6637 C   0  0  2  0  0  0  0  0  0  0  0  0
   20.1664   25.1066   37.1229 N   0  0  0  0  0  0  0  0  0  0  0  0
   23.2679   32.8808   38.4324 C   0  0  1  0  0  0  0  0  0  0  0  0
   23.4096   34.0223   39.3585 N   0  0  0  0  0  0  0  0  0  0  0  0
   16.7999   26.0302   34.0440 C   0  0  2  0  0  0  0  0  0  0  0  0
   16.3156   24.6843   34.0019 O   0  0  0  0  0  0  0  0  0  0  0  0
   20.3974   27.5226   36.6137 C   0  0  2  0  0  0  0  0  0  0  0  0
   23.3324   33.3710   36.9512 C   0  0  1  0  0  0  0  0  0  0  0  0
   24.5931   33.9981   36.7394 O   0  0  0  0  0  0  0  0  0  0  0  0
   18.3881   26.0809   34.0078 C   0  0  2  0  0  0  0  0  0  0  0  0
   18.8686   27.4795   34.0627 O   0  0  0  0  0  0  0  0  0  0  0  0
   20.9185   28.8764   37.1678 C   0  0  2  0  0  0  0  0  0  0  0  0
   20.6891   29.8762   36.1770 O   0  0  0  0  0  0  0  0  0  0  0  0
   23.1848   32.1371   36.0041 C   0  0  0  0  0  0  0  0  0  0  0  0
   24.2161   31.1111   36.2901 O   0  0  0  0  0  0  0  0  0  0  0  0
   18.9798   25.4230   32.7281 C   0  0  2  0  0  0  0  0  0  0  0  0
   18.2930   25.9277   31.5776 O   0  0  0  0  0  0  0  0  0  0  0  0
   22.4392   28.8337   37.4575 C   0  0  1  0  0  0  0  0  0  0  0  0
   22.8274   30.1283   37.9940 O   0  0  0  0  0  0  0  0  0  0  0  0
   18.8264   23.9180   32.7364 C   0  0  0  0  0  0  0  0  0  0  0  0
   22.2407   34.3937   36.6329 C   0  0  0  0  0  0  0  0  0  0  0  0
   22.4975   33.7815   40.5035 C   0  0  0  0  0  0  0  0  0  0  0  0
  1  2  1  1  0  0  0
  1  6  1  0  0  0  0
  1 23  1  0  0  0  0
  3  4  1  6  0  0  0
  3  8  1  0  0  0  0
  3 30  1  0  0  0  0
  5  9  1  0  0  0  0
  5 27  1  0  0  0  0
  5 31  1  1  0  0  0
  6  7  1  1  0  0  0
  6 11  1  0  0  0  0
  8 13  1  0  0  0  0
  9 10  1  1  0  0  0
  9 15  1  0  0  0  0
 11 12  1  6  0  0  0
 11 17  1  0  0  0  0
 13 14  1  6  0  0  0
 13 19  1  0  0  0  0
 15 16  1  1  0  0  0
 15 20  1  0  0  0  0
 16 34  1  0  0  0  0
 17 18  1  1  0  0  0
 17 22  1  0  0  0  0
 19  2  1  1  0  0  0
 19 24  1  0  0  0  0
 20 21  1  6  0  0  0
 20 26  1  0  0  0  0
 20 33  1  0  0  0  0
 22 23  1  6  0  0  0
 22 28  1  0  0  0  0
 24 25  1  6  0  0  0
 24 30  1  0  0  0  0
 26 27  1  0  0  0  0
 28 29  1  6  0  0  0
 28 32  1  0  0  0  0
 30 31  1  1  0  0  0
M  END
>  <CHROM.1>
-174.51271651,-163.05372383,-97.17033440,48.55638498,97.22195557,-166.36246883
20.72419286,28.93939839,36.46204580,2.40931482,0.55844493,-3.12298468

>  <Name>
ligand

>  <RI>
0

>  <Rbt.Current_Directory>
/home/itssahil/PROJECTS/Mol_Feturizer/New_Systems/rnas/4p3s

>  <Rbt.Executable>
rbdock ($Id: //depot/dev/client3/rdock/2013.1/src/exe/rbdock.cxx#4 $)

>  <Rbt.Library>
libRbt.so (2013.1, Build901 2013/11/27)

>  <Rbt.Parameter_File>
/export/apps/rDock/src/rDock_2013.1_src/data/scripts/dock_solv.prm

>  <Rbt.Receptor>
prm/pocket_docking_3.prm

>  <SCORE>
-18.9762

>  <SCORE.INTER>
-15.2505

>  <SCORE.INTER.CONST>
1

>  <SCORE.INTER.POLAR>
0

>  <SCORE.INTER.ROT>
6

>  <SCORE.INTER.SOLV>
21.2038

>  <SCORE.INTER.VDW>
-24.8349

>  <SCORE.INTER.norm>
-0.448543

>  <SCORE.INTRA>
-3.72576

>  <SCORE.INTRA.DIHEDRAL>
-7.25161

>  <SCORE.INTRA.DIHEDRAL.0>
15.8194

>  <SCORE.INTRA.POLAR>
0

>  <SCORE.INTRA.POLAR.0>
0

>  <SCORE.INTRA.REPUL>
0

>  <SCORE.INTRA.REPUL.0>
0

>  <SCORE.INTRA.SOLV>
-0.417624

>  <SCORE.INTRA.SOLV.lig_0>
-71.9159

>  <SCORE.INTRA.VDW>
0.108857

>  <SCORE.INTRA.VDW.0>
-3.53918

>  <SCORE.INTRA.norm>
-0.109581

>  <SCORE.RESTR>
0

>  <SCORE.RESTR.CAVITY>
0

>  <SCORE.RESTR.norm>
0

>  <SCORE.SYSTEM>
0

>  <SCORE.SYSTEM.CONST>
0

>  <SCORE.SYSTEM.DIHEDRAL>
0

>  <SCORE.SYSTEM.SOLV>
0

>  <SCORE.SYSTEM.norm>
0

>  <SCORE.heavy>
34

>  <SCORE.norm>
-0.558124

>  <RMSD>
0.885

$$$$
ligand
 OpenBabel01301917533D
libRbt.so/2013.1/901 2013/11/27
 34 36  0  0  0  0  0  0  0  0999 V2000
   18.3539   28.1726   35.2572 C   0  0  2  0  0  0  0  0  0  0  0  0
   18.8901   27.5387   36.4229 O   0  0  0  0  0  0  0  0  0  0  0  0
   22.6123   27.7042   38.5490 C   0  0  2  0  0  0  0  0  0  0  0  0
   24.0423   27.6125   38.8732 N   0  0  0  0  0  0  0  0  0  0  0  0
   24.1369   30.6017   37.7126 C   0  0  2  0  0  0  0  0  0  0  0  0
   16.7826   28.1232   35.3541 C   0  0  2  0  0  0  0  0  0  0  0  0
   16.3101   28.8047   36.5700 N   0  0  0  0  0  0  0  0  0  0  0  0
   22.1584   26.3085   37.9874 C   0  0  0  0  0  0  0  0  0  0  0  0
   24.3521   31.8246   38.6891 C   0  0  2  0  0  0  0  0  0  0  0  0
   24.2875   31.3946   40.0380 O   0  0  0  0  0  0  0  0  0  0  0  0
   16.2887   26.6451   35.3425 C   0  0  1  0  0  0  0  0  0  0  0  0
   14.8527   26.5953   35.4312 O   0  0  0  0  0  0  0  0  0  0  0  0
   20.6267   26.4016   37.6596 C   0  0  2  0  0  0  0  0  0  0  0  0
   20.1263   25.1078   37.1138 N   0  0  0  0  0  0  0  0  0  0  0  0
   23.2256   32.8876   38.4003 C   0  0  1  0  0  0  0  0  0  0  0  0
   23.3489   34.0451   39.3090 N   0  0  0  0  0  0  0  0  0  0  0  0
   16.8039   25.9689   34.0505 C   0  0  2  0  0  0  0  0  0  0  0  0
   16.3506   24.6120   34.0141 O   0  0  0  0  0  0  0  0  0  0  0  0
   20.3496   27.5272   36.6177 C   0  0  2  0  0  0  0  0  0  0  0  0
   23.3324   33.3503   36.9127 C   0  0  1  0  0  0  0  0  0  0  0  0
   24.6018   33.9669   36.7235 O   0  0  0  0  0  0  0  0  0  0  0  0
   18.3907   26.0553   34.0258 C   0  0  2  0  0  0  0  0  0  0  0  0
   18.8390   27.4649   34.0746 O   0  0  0  0  0  0  0  0  0  0  0  0
   20.8709   28.8789   37.1770 C   0  0  2  0  0  0  0  0  0  0  0  0
   20.6341   29.8840   36.1934 O   0  0  0  0  0  0  0  0  0  0  0  0
   23.2033   32.1000   35.9845 C   0  0  0  0  0  0  0  0  0  0  0  0
   24.2208   31.0742   36.3167 O   0  0  0  0  0  0  0  0  0  0  0  0
   19.0070   25.4024   32.7553 C   0  0  2  0  0  0  0  0  0  0  0  0
   18.2508   25.8004   31.6064 O   0  0  0  0  0  0  0  0  0  0  0  0
   22.3933   28.8375   37.4582 C   0  0  1  0  0  0  0  0  0  0  0  0
   22.7817   30.1298   38.0003 O   0  0  0  0  0  0  0  0  0  0  0  0
   18.9871   23.8912   32.8226 C   0  0  0  0  0  0  0  0  0  0  0  0
   22.2553   34.3725   36.5468 C   0  0  0  0  0  0  0  0  0  0  0  0
   22.4349   33.8106   40.4538 C   0  0  0  0  0  0  0  0  0  0  0  0
  1  2  1  1  0  0  0
  1  6  1  0  0  0  0
  1 23  1  0  0  0  0
  3  4  1  6  0  0  0
  3  8  1  0  0  0  0
  3 30  1  0  0  0  0
  5  9  1  0  0  0  0
  5 27  1  0  0  0  0
  5 31  1  6  0  0  0
  6  7  1  1  0  0  0
  6 11  1  0  0  0  0
  8 13  1  0  0  0  0
  9 10  1  1  0  0  0
  9 15  1  0  0  0  0
 11 12  1  6  0  0  0
 11 17  1  0  0  0  0
 13 14  1  6  0  0  0
 13 19  1  0  0  0  0
 15 16  1  1  0  0  0
 15 20  1  0  0  0  0
 16 34  1  0  0  0  0
 17 18  1  1  0  0  0
 17 22  1  0  0  0  0
 19  2  1  1  0  0  0
 19 24  1  0  0  0  0
 20 21  1  6  0  0  0
 20 26  1  0  0  0  0
 20 33  1  0  0  0  0
 22 23  1  6  0  0  0
 22 28  1  0  0  0  0
 24 25  1  6  0  0  0
 24 30  1  0  0  0  0
 26 27  1  0  0  0  0
 28 29  1  6  0  0  0
 28 32  1  0  0  0  0
 30 31  1  1  0  0  0
M  END
>  <CHROM.1>
-176.19561342,-161.68273637,-95.51313466,44.00902466,95.51822330,-167.36868363
20.69930476,28.91895825,36.46141682,2.39540792,0.54454348,-3.10965151

>  <Name>
ligand

>  <RI>
0

>  <Rbt.Current_Directory>
/home/itssahil/PROJECTS/Mol_Feturizer/New_Systems/rnas/4p3s

>  <Rbt.Executable>
rbdock ($Id: //depot/dev/client3/rdock/2013.1/src/exe/rbdock.cxx#4 $)

>  <Rbt.Library>
libRbt.so (2013.1, Build901 2013/11/27)

>  <Rbt.Parameter_File>
/export/apps/rDock/src/rDock_2013.1_src/data/scripts/dock_solv.prm

>  <Rbt.Receptor>
prm/pocket_docking_3.prm

>  <SCORE>
-19.0376

>  <SCORE.INTER>
-15.2954

>  <SCORE.INTER.CONST>
1

>  <SCORE.INTER.POLAR>
0

>  <SCORE.INTER.ROT>
6

>  <SCORE.INTER.SOLV>
20.9713

>  <SCORE.INTER.VDW>
-24.7874

>  <SCORE.INTER.norm>
-0.449865

>  <SCORE.INTRA>
-3.74398

>  <SCORE.INTRA.DIHEDRAL>
-7.17462

>  <SCORE.INTRA.DIHEDRAL.0>
15.8194

>  <SCORE.INTRA.POLAR>
0

>  <SCORE.INTRA.POLAR.0>
0

>  <SCORE.INTRA.REPUL>
0

>  <SCORE.INTRA.REPUL.0>
0

>  <SCORE.INTRA.SOLV>
-0.250246

>  <SCORE.INTRA.SOLV.lig_0>
-71.9159

>  <SCORE.INTRA.VDW>
-0.0315442

>  <SCORE.INTRA.VDW.0>
-3.53918

>  <SCORE.INTRA.norm>
-0.110117

>  <SCORE.RESTR>
0.0017822

>  <SCORE.RESTR.CAVITY>
0.0017822

>  <SCORE.RESTR.norm>
5.24177e-05

>  <SCORE.SYSTEM>
0

>  <SCORE.SYSTEM.CONST>
0

>  <SCORE.SYSTEM.DIHEDRAL>
0

>  <SCORE.SYSTEM.SOLV>
0

>  <SCORE.SYSTEM.norm>
0

>  <SCORE.heavy>
34

>  <SCORE.norm>
-0.55993

>  <RMSD>
0.887

$$$$
ligand
 OpenBabel01301917533D
libRbt.so/2013.1/901 2013/11/27
 34 36  0  0  0  0  0  0  0  0999 V2000
   18.4419   27.7350   34.9799 C   0  0  2  0  0  0  0  0  0  0  0  0
   18.9277   27.3067   36.2562 O   0  0  0  0  0  0  0  0  0  0  0  0
   22.5407   27.7053   38.5342 C   0  0  2  0  0  0  0  0  0  0  0  0
   23.9561   27.6760   38.9269 N   0  0  0  0  0  0  0  0  0  0  0  0
   24.0529   30.5486   37.7147 C   0  0  2  0  0  0  0  0  0  0  0  0
   16.8681   27.7565   35.0390 C   0  0  2  0  0  0  0  0  0  0  0  0
   16.3949   28.6634   36.0971 N   0  0  0  0  0  0  0  0  0  0  0  0
   22.1531   26.2671   38.0334 C   0  0  0  0  0  0  0  0  0  0  0  0
   24.1875   31.7606   38.7189 C   0  0  2  0  0  0  0  0  0  0  0  0
   23.9752   31.3229   40.0500 O   0  0  0  0  0  0  0  0  0  0  0  0
   16.3188   26.3182   35.2814 C   0  0  1  0  0  0  0  0  0  0  0  0
   14.8804   26.3333   35.3363 O   0  0  0  0  0  0  0  0  0  0  0  0
   20.6363   26.2945   37.6325 C   0  0  2  0  0  0  0  0  0  0  0  0
   20.1986   24.9574   37.1395 N   0  0  0  0  0  0  0  0  0  0  0  0
   23.1167   32.8467   38.3238 C   0  0  1  0  0  0  0  0  0  0  0  0
   23.1658   33.9955   39.2505 N   0  0  0  0  0  0  0  0  0  0  0  0
   16.8366   25.4011   34.1488 C   0  0  2  0  0  0  0  0  0  0  0  0
   16.3330   24.0762   34.3460 O   0  0  0  0  0  0  0  0  0  0  0  0
   20.3762   27.3512   36.5166 C   0  0  2  0  0  0  0  0  0  0  0  0
   23.3859   33.3173   36.8595 C   0  0  1  0  0  0  0  0  0  0  0  0
   24.6791   33.9111   36.8084 O   0  0  0  0  0  0  0  0  0  0  0  0
   18.4257   25.4288   34.1545 C   0  0  2  0  0  0  0  0  0  0  0  0
   18.9260   26.8079   33.9598 O   0  0  0  0  0  0  0  0  0  0  0  0
   20.8325   28.7473   37.0206 C   0  0  2  0  0  0  0  0  0  0  0  0
   20.6134   29.6883   35.9717 O   0  0  0  0  0  0  0  0  0  0  0  0
   23.3313   32.0760   35.9121 C   0  0  0  0  0  0  0  0  0  0  0  0
   24.2901   31.0289   36.3393 O   0  0  0  0  0  0  0  0  0  0  0  0
   19.0448   24.5351   33.0416 C   0  0  2  0  0  0  0  0  0  0  0  0
   20.4721   24.5678   33.1499 O   0  0  0  0  0  0  0  0  0  0  0  0
   22.3407   28.7688   37.3717 C   0  0  1  0  0  0  0  0  0  0  0  0
   22.6667   30.1006   37.8561 O   0  0  0  0  0  0  0  0  0  0  0  0
   18.6741   25.0113   31.6544 C   0  0  0  0  0  0  0  0  0  0  0  0
   22.3715   34.3622   36.3925 C   0  0  0  0  0  0  0  0  0  0  0  0
   22.1016   33.7945   40.2643 C   0  0  0  0  0  0  0  0  0  0  0  0
  1  2  1  1  0  0  0
  1  6  1  0  0  0  0
  1 23  1  0  0  0  0
  3  4  1  6  0  0  0
  3  8  1  0  0  0  0
  3 30  1  0  0  0  0
  5  9  1  0  0  0  0
  5 27  1  0  0  0  0
  5 31  1  6  0  0  0
  6  7  1  1  0  0  0
  6 11  1  0  0  0  0
  8 13  1  0  0  0  0
  9 10  1  1  0  0  0
  9 15  1  0  0  0  0
 11 12  1  6  0  0  0
 11 17  1  0  0  0  0
 13 14  1  6  0  0  0
 13 19  1  0  0  0  0
 15 16  1  1  0  0  0
 15 20  1  0  0  0  0
 16 34  1  0  0  0  0
 17 18  1  1  0  0  0
 17 22  1  0  0  0  0
 19  2  1  1  0  0  0
 19 24  1  0  0  0  0
 20 21  1  6  0  0  0
 20 26  1  0  0  0  0
 20 33  1  0  0  0  0
 22 23  1  6  0  0  0
 22 28  1  0  0  0  0
 24 25  1  6  0  0  0
 24 30  1  0  0  0  0
 26 27  1  0  0  0  0
 28 29  1  6  0  0  0
 28 32  1  0  0  0  0
 30 31  1  1  0  0  0
M  END
>  <CHROM.1>
-172.93715898,-155.53163975,-97.47856516,-177.50151300,89.94734631,-161.99508631
20.74774042,28.72919760,36.42531485,2.30381973,0.45814671,-3.01935595

>  <Name>
ligand

>  <RI>
0

>  <Rbt.Current_Directory>
/home/itssahil/PROJECTS/Mol_Feturizer/New_Systems/rnas/4p3s

>  <Rbt.Executable>
rbdock ($Id: //depot/dev/client3/rdock/2013.1/src/exe/rbdock.cxx#4 $)

>  <Rbt.Library>
libRbt.so (2013.1, Build901 2013/11/27)

>  <Rbt.Parameter_File>
/export/apps/rDock/src/rDock_2013.1_src/data/scripts/dock_solv.prm

>  <Rbt.Receptor>
prm/pocket_docking_7.prm

>  <SCORE>
-18.7247

>  <SCORE.INTER>
-15.35

>  <SCORE.INTER.CONST>
1

>  <SCORE.INTER.POLAR>
0

>  <SCORE.INTER.ROT>
6

>  <SCORE.INTER.SOLV>
21.564

>  <SCORE.INTER.VDW>
-25.0213

>  <SCORE.INTER.norm>
-0.45147

>  <SCORE.INTRA>
-3.37473

>  <SCORE.INTRA.DIHEDRAL>
-7.03785

>  <SCORE.INTRA.DIHEDRAL.0>
15.8194

>  <SCORE.INTRA.POLAR>
0

>  <SCORE.INTRA.POLAR.0>
0

>  <SCORE.INTRA.REPUL>
0

>  <SCORE.INTRA.REPUL.0>
0

>  <SCORE.INTRA.SOLV>
0.115386

>  <SCORE.INTRA.SOLV.lig_0>
-71.9159

>  <SCORE.INTRA.VDW>
0.0864999

>  <SCORE.INTRA.VDW.0>
-3.53918

>  <SCORE.INTRA.norm>
-0.0992568

>  <SCORE.RESTR>
0

>  <SCORE.RESTR.CAVITY>
0

>  <SCORE.RESTR.norm>
0

>  <SCORE.SYSTEM>
0

>  <SCORE.SYSTEM.CONST>
0

>  <SCORE.SYSTEM.DIHEDRAL>
0

>  <SCORE.SYSTEM.SOLV>
0

>  <SCORE.SYSTEM.norm>
0

>  <SCORE.heavy>
34

>  <SCORE.norm>
-0.550727

>  <RMSD>
0.887

$$$$
ligand
 OpenBabel01301917533D
libRbt.so/2013.1/901 2013/11/27
 34 36  0  0  0  0  0  0  0  0999 V2000
   18.4796   27.7374   34.9832 C   0  0  2  0  0  0  0  0  0  0  0  0
   18.9643   27.3056   36.2587 O   0  0  0  0  0  0  0  0  0  0  0  0
   22.5791   27.7010   38.5345 C   0  0  2  0  0  0  0  0  0  0  0  0
   23.9944   27.6677   38.9275 N   0  0  0  0  0  0  0  0  0  0  0  0
   24.0987   30.5418   37.6778 C   0  0  2  0  0  0  0  0  0  0  0  0
   16.9057   27.7548   35.0397 C   0  0  2  0  0  0  0  0  0  0  0  0
   16.4285   28.6567   36.1003 N   0  0  0  0  0  0  0  0  0  0  0  0
   22.1851   26.2618   38.0419 C   0  0  0  0  0  0  0  0  0  0  0  0
   24.2532   31.7446   38.6902 C   0  0  2  0  0  0  0  0  0  0  0  0
   24.0679   31.2944   40.0212 O   0  0  0  0  0  0  0  0  0  0  0  0
   16.3596   26.3143   35.2760 C   0  0  1  0  0  0  0  0  0  0  0  0
   14.9210   26.3257   35.3285 O   0  0  0  0  0  0  0  0  0  0  0  0
   20.6684   26.2937   37.6408 C   0  0  2  0  0  0  0  0  0  0  0  0
   20.2248   24.9557   37.1554 N   0  0  0  0  0  0  0  0  0  0  0  0
   23.1744   32.8338   38.3268 C   0  0  1  0  0  0  0  0  0  0  0  0
   23.2419   33.9740   39.2629 N   0  0  0  0  0  0  0  0  0  0  0  0
   16.8815   25.4026   34.1409 C   0  0  2  0  0  0  0  0  0  0  0  0
   16.3808   24.0757   34.3325 O   0  0  0  0  0  0  0  0  0  0  0  0
   20.4131   27.3451   36.5190 C   0  0  2  0  0  0  0  0  0  0  0  0
   23.4140   33.3180   36.8618 C   0  0  1  0  0  0  0  0  0  0  0  0
   24.7057   33.9128   36.7902 O   0  0  0  0  0  0  0  0  0  0  0  0
   18.4705   25.4341   34.1494 C   0  0  2  0  0  0  0  0  0  0  0  0
   18.9677   26.8151   33.9606 O   0  0  0  0  0  0  0  0  0  0  0  0
   20.8755   28.7421   37.0151 C   0  0  2  0  0  0  0  0  0  0  0  0
   20.6606   29.6780   35.9608 O   0  0  0  0  0  0  0  0  0  0  0  0
   23.3407   32.0855   35.9042 C   0  0  0  0  0  0  0  0  0  0  0  0
   24.3081   31.0349   36.3023 O   0  0  0  0  0  0  0  0  0  0  0  0
   19.0937   24.5460   33.0344 C   0  0  2  0  0  0  0  0  0  0  0  0
   20.5206   24.5770   33.1489 O   0  0  0  0  0  0  0  0  0  0  0  0
   22.3838   28.7588   37.3661 C   0  0  1  0  0  0  0  0  0  0  0  0
   22.7158   30.0919   37.8428 O   0  0  0  0  0  0  0  0  0  0  0  0
   18.7292   25.0299   31.6482 C   0  0  0  0  0  0  0  0  0  0  0  0
   22.3901   34.3667   36.4250 C   0  0  0  0  0  0  0  0  0  0  0  0
   22.1852   33.7733   40.2847 C   0  0  0  0  0  0  0  0  0  0  0  0
  1  2  1  1  0  0  0
  1  6  1  0  0  0  0
  1 23  1  0  0  0  0
  3  4  1  6  0  0  0
  3  8  1  0  0  0  0
  3 30  1  0  0  0  0
  5  9  1  0  0  0  0
  5 27  1  0  0  0  0
  5 31  1  6  0  0  0
  6  7  1  1  0  0  0
  6 11  1  0  0  0  0
  8 13  1  0  0  0  0
  9 10  1  1  0  0  0
  9 15  1  0  0  0  0
 11 12  1  6  0  0  0
 11 17  1  0  0  0  0
 13 14  1  6  0  0  0
 13 19  1  0  0  0  0
 15 16  1  1  0  0  0
 15 20  1  0  0  0  0
 16 34  1  0  0  0  0
 17 18  1  1  0  0  0
 17 22  1  0  0  0  0
 19  2  1  1  0  0  0
 19 24  1  0  0  0  0
 20 21  1  6  0  0  0
 20 26  1  0  0  0  0
 20 33  1  0  0  0  0
 22 23  1  6  0  0  0
 22 28  1  0  0  0  0
 24 25  1  6  0  0  0
 24 30  1  0  0  0  0
 26 27  1  0  0  0  0
 28 29  1  6  0  0  0
 28 32  1  0  0  0  0
 30 31  1  1  0  0  0
M  END
>  <CHROM.1>
-173.29859509,-155.94796303,-98.29266398,-177.24740472,90.98622216,-161.33970316
20.79106712,28.72593852,36.42128875,2.30866305,0.46517513,-3.02717677

>  <Name>
ligand

>  <RI>
0

>  <Rbt.Current_Directory>
/home/itssahil/PROJECTS/Mol_Feturizer/New_Systems/rnas/4p3s

>  <Rbt.Executable>
rbdock ($Id: //depot/dev/client3/rdock/2013.1/src/exe/rbdock.cxx#4 $)

>  <Rbt.Library>
libRbt.so (2013.1, Build901 2013/11/27)

>  <Rbt.Parameter_File>
/export/apps/rDock/src/rDock_2013.1_src/data/scripts/dock_solv.prm

>  <Rbt.Receptor>
prm/pocket_docking_4.prm

>  <SCORE>
-18.6955

>  <SCORE.INTER>
-15.3792

>  <SCORE.INTER.CONST>
1

>  <SCORE.INTER.POLAR>
0

>  <SCORE.INTER.ROT>
6

>  <SCORE.INTER.SOLV>
21.8064

>  <SCORE.INTER.VDW>
-25.1216

>  <SCORE.INTER.norm>
-0.452329

>  <SCORE.INTRA>
-3.31625

>  <SCORE.INTRA.DIHEDRAL>
-6.81548

>  <SCORE.INTRA.DIHEDRAL.0>
15.8194

>  <SCORE.INTRA.POLAR>
0

>  <SCORE.INTRA.POLAR.0>
0

>  <SCORE.INTRA.REPUL>
0

>  <SCORE.INTRA.REPUL.0>
0

>  <SCORE.INTRA.SOLV>
0.0732658

>  <SCORE.INTRA.SOLV.lig_0>
-71.9159

>  <SCORE.INTRA.VDW>
0.0548551

>  <SCORE.INTRA.VDW.0>
-3.53918

>  <SCORE.INTRA.norm>
-0.0975369

>  <SCORE.RESTR>
0

>  <SCORE.RESTR.CAVITY>
0

>  <SCORE.RESTR.norm>
0

>  <SCORE.SYSTEM>
0

>  <SCORE.SYSTEM.CONST>
0

>  <SCORE.SYSTEM.DIHEDRAL>
0

>  <SCORE.SYSTEM.SOLV>
0

>  <SCORE.SYSTEM.norm>
0

>  <SCORE.heavy>
34

>  <SCORE.norm>
-0.549866

>  <RMSD>
0.888

$$$$
ligand
 OpenBabel01301917533D
libRbt.so/2013.1/901 2013/11/27
 34 36  0  0  0  0  0  0  0  0999 V2000
   18.2202   28.3198   35.0419 C   0  0  2  0  0  0  0  0  0  0  0  0
   18.7540   27.7016   36.2171 O   0  0  0  0  0  0  0  0  0  0  0  0
   22.4933   27.8015   38.3171 C   0  0  2  0  0  0  0  0  0  0  0  0
   23.9241   27.6871   38.6306 N   0  0  0  0  0  0  0  0  0  0  0  0
   24.0881   30.6282   37.5822 C   0  0  2  0  0  0  0  0  0  0  0  0
   16.6978   28.6288   35.3017 C   0  0  2  0  0  0  0  0  0  0  0  0
   16.5331   29.5147   36.4653 N   0  0  0  0  0  0  0  0  0  0  0  0
   22.0149   26.4155   37.7518 C   0  0  0  0  0  0  0  0  0  0  0  0
   24.3208   31.7958   38.6203 C   0  0  2  0  0  0  0  0  0  0  0  0
   24.1594   31.3167   39.9443 O   0  0  0  0  0  0  0  0  0  0  0  0
   15.9095   27.3026   35.5225 C   0  0  1  0  0  0  0  0  0  0  0  0
   14.5172   27.5805   35.7605 O   0  0  0  0  0  0  0  0  0  0  0  0
   20.4824   26.5328   37.4355 C   0  0  2  0  0  0  0  0  0  0  0  0
   19.9592   25.2493   36.8868 N   0  0  0  0  0  0  0  0  0  0  0  0
   23.2747   32.9351   38.3205 C   0  0  1  0  0  0  0  0  0  0  0  0
   23.4156   34.0457   39.2836 N   0  0  0  0  0  0  0  0  0  0  0  0
   16.1072   26.4048   34.2787 C   0  0  2  0  0  0  0  0  0  0  0  0
   15.3803   25.1849   34.4560 O   0  0  0  0  0  0  0  0  0  0  0  0
   20.2145   27.6677   36.4014 C   0  0  2  0  0  0  0  0  0  0  0  0
   23.4875   33.4499   36.8617 C   0  0  1  0  0  0  0  0  0  0  0  0
   24.7987   33.9965   36.7645 O   0  0  0  0  0  0  0  0  0  0  0  0
   17.6614   26.1356   34.0842 C   0  0  2  0  0  0  0  0  0  0  0  0
   18.3959   27.4089   33.9131 O   0  0  0  0  0  0  0  0  0  0  0  0
   20.7596   29.0086   36.9637 C   0  0  2  0  0  0  0  0  0  0  0  0
   20.5306   30.0222   35.9870 O   0  0  0  0  0  0  0  0  0  0  0  0
   23.3364   32.2479   35.8750 C   0  0  0  0  0  0  0  0  0  0  0  0
   24.2738   31.1505   36.2141 O   0  0  0  0  0  0  0  0  0  0  0  0
   17.9646   25.2402   32.8486 C   0  0  2  0  0  0  0  0  0  0  0  0
   17.2145   24.0249   32.9512 O   0  0  0  0  0  0  0  0  0  0  0  0
   22.2832   28.9435   37.2337 C   0  0  1  0  0  0  0  0  0  0  0  0
   22.6944   30.2271   37.7795 O   0  0  0  0  0  0  0  0  0  0  0  0
   19.4295   24.8743   32.7539 C   0  0  0  0  0  0  0  0  0  0  0  0
   22.4924   34.5487   36.4857 C   0  0  0  0  0  0  0  0  0  0  0  0
   22.4190   33.8291   40.3608 C   0  0  0  0  0  0  0  0  0  0  0  0
  1  2  1  1  0  0  0
  1  6  1  0  0  0  0
  1 23  1  0  0  0  0
  3  4  1  6  0  0  0
  3  8  1  0  0  0  0
  3 30  1  0  0  0  0
  5  9  1  0  0  0  0
  5 27  1  0  0  0  0
  5 31  1  6  0  0  0
  6  7  1  1  0  0  0
  6 11  1  0  0  0  0
  8 13  1  0  0  0  0
  9 10  1  1  0  0  0
  9 15  1  0  0  0  0
 11 12  1  6  0  0  0
 11 17  1  0  0  0  0
 13 14  1  6  0  0  0
 13 19  1  0  0  0  0
 15 16  1  1  0  0  0
 15 20  1  0  0  0  0
 16 34  1  0  0  0  0
 17 18  1  1  0  0  0
 17 22  1  0  0  0  0
 19  2  1  1  0  0  0
 19 24  1  0  0  0  0
 20 21  1  6  0  0  0
 20 26  1  0  0  0  0
 20 33  1  0  0  0  0
 22 23  1  6  0  0  0
 22 28  1  0  0  0  0
 24 25  1  6  0  0  0
 24 30  1  0  0  0  0
 26 27  1  0  0  0  0
 28 29  1  1  0  0  0
 28 32  1  0  0  0  0
 30 31  1  1  0  0  0
M  END
>  <CHROM.1>
-162.25205961,-160.13295398,-96.15253916,-54.63732627,90.40654233,-163.64159153
20.52456014,29.05969104,36.43489933,2.37171059,0.36407589,-2.97857124

>  <Name>
ligand

>  <RI>
0

>  <Rbt.Current_Directory>
/home/itssahil/PROJECTS/Mol_Feturizer/New_Systems/rnas/4p3s

>  <Rbt.Executable>
rbdock ($Id: //depot/dev/client3/rdock/2013.1/src/exe/rbdock.cxx#4 $)

>  <Rbt.Library>
libRbt.so (2013.1, Build901 2013/11/27)

>  <Rbt.Parameter_File>
/export/apps/rDock/src/rDock_2013.1_src/data/scripts/dock_solv.prm

>  <Rbt.Receptor>
prm/pocket_docking_4.prm

>  <SCORE>
-18.9935

>  <SCORE.INTER>
-15.66

>  <SCORE.INTER.CONST>
1

>  <SCORE.INTER.POLAR>
0

>  <SCORE.INTER.ROT>
6

>  <SCORE.INTER.SOLV>
19.9245

>  <SCORE.INTER.VDW>
-24.6815

>  <SCORE.INTER.norm>
-0.460587

>  <SCORE.INTRA>
-3.33349

>  <SCORE.INTRA.DIHEDRAL>
-6.73747

>  <SCORE.INTRA.DIHEDRAL.0>
15.8194

>  <SCORE.INTRA.POLAR>
0

>  <SCORE.INTRA.POLAR.0>
0

>  <SCORE.INTRA.REPUL>
0

>  <SCORE.INTRA.REPUL.0>
0

>  <SCORE.INTRA.SOLV>
0.386877

>  <SCORE.INTRA.SOLV.lig_0>
-71.9159

>  <SCORE.INTRA.VDW>
-0.158194

>  <SCORE.INTRA.VDW.0>
-3.53918

>  <SCORE.INTRA.norm>
-0.0980439

>  <SCORE.RESTR>
0

>  <SCORE.RESTR.CAVITY>
0

>  <SCORE.RESTR.norm>
0

>  <SCORE.SYSTEM>
0

>  <SCORE.SYSTEM.CONST>
0

>  <SCORE.SYSTEM.DIHEDRAL>
0

>  <SCORE.SYSTEM.SOLV>
0

>  <SCORE.SYSTEM.norm>
0

>  <SCORE.heavy>
34

>  <SCORE.norm>
-0.558631

>  <RMSD>
0.888

$$$$
ligand
 OpenBabel01301917533D
libRbt.so/2013.1/901 2013/11/27
 34 36  0  0  0  0  0  0  0  0999 V2000
   18.2139   28.1138   35.0610 C   0  0  2  0  0  0  0  0  0  0  0  0
   18.7508   27.4532   36.2114 O   0  0  0  0  0  0  0  0  0  0  0  0
   22.4407   27.6816   38.3875 C   0  0  2  0  0  0  0  0  0  0  0  0
   23.8680   27.6173   38.7300 N   0  0  0  0  0  0  0  0  0  0  0  0
   23.9540   30.5560   37.7022 C   0  0  2  0  0  0  0  0  0  0  0  0
   16.6793   28.3628   35.3132 C   0  0  2  0  0  0  0  0  0  0  0  0
   16.4716   29.1830   36.5174 N   0  0  0  0  0  0  0  0  0  0  0  0
   22.0230   26.2805   37.8116 C   0  0  0  0  0  0  0  0  0  0  0  0
   24.1032   31.7654   38.7075 C   0  0  2  0  0  0  0  0  0  0  0  0
   23.9014   31.3259   40.0396 O   0  0  0  0  0  0  0  0  0  0  0  0
   15.9296   27.0038   35.4552 C   0  0  1  0  0  0  0  0  0  0  0  0
   14.5263   27.2267   35.6861 O   0  0  0  0  0  0  0  0  0  0  0  0
   20.4941   26.3442   37.4642 C   0  0  2  0  0  0  0  0  0  0  0  0
   20.0277   25.0438   36.9041 N   0  0  0  0  0  0  0  0  0  0  0  0
   23.0334   32.8568   38.3245 C   0  0  1  0  0  0  0  0  0  0  0  0
   23.0960   34.0036   39.2529 N   0  0  0  0  0  0  0  0  0  0  0  0
   16.1718   26.1767   34.1709 C   0  0  2  0  0  0  0  0  0  0  0  0
   15.4809   24.9278   34.2757 O   0  0  0  0  0  0  0  0  0  0  0  0
   20.2076   27.4704   36.4254 C   0  0  2  0  0  0  0  0  0  0  0  0
   23.2910   33.3292   36.8587 C   0  0  1  0  0  0  0  0  0  0  0  0
   24.5862   33.9175   36.7967 O   0  0  0  0  0  0  0  0  0  0  0  0
   17.7361   25.9650   33.9863 C   0  0  2  0  0  0  0  0  0  0  0  0
   18.4329   27.2671   33.8905 O   0  0  0  0  0  0  0  0  0  0  0  0
   20.6936   28.8289   36.9997 C   0  0  2  0  0  0  0  0  0  0  0  0
   20.4491   29.8351   36.0191 O   0  0  0  0  0  0  0  0  0  0  0  0
   23.2223   32.0900   35.9094 C   0  0  0  0  0  0  0  0  0  0  0  0
   24.1804   31.0379   36.3256 O   0  0  0  0  0  0  0  0  0  0  0  0
   18.0835   25.1432   32.7118 C   0  0  2  0  0  0  0  0  0  0  0  0
   17.3239   23.9295   32.7116 O   0  0  0  0  0  0  0  0  0  0  0  0
   22.2127   28.8171   37.3007 C   0  0  1  0  0  0  0  0  0  0  0  0
   22.5673   30.1136   37.8556 O   0  0  0  0  0  0  0  0  0  0  0  0
   19.5491   24.7729   32.6527 C   0  0  0  0  0  0  0  0  0  0  0  0
   22.2768   34.3793   36.4032 C   0  0  0  0  0  0  0  0  0  0  0  0
   22.0373   33.8075   40.2735 C   0  0  0  0  0  0  0  0  0  0  0  0
  1  2  1  1  0  0  0
  1  6  1  0  0  0  0
  1 23  1  0  0  0  0
  3  4  1  6  0  0  0
  3  8  1  0  0  0  0
  3 30  1  0  0  0  0
  5  9  1  0  0  0  0
  5 27  1  0  0  0  0
  5 31  1  6  0  0  0
  6  7  1  1  0  0  0
  6 11  1  0  0  0  0
  8 13  1  0  0  0  0
  9 10  1  1  0  0  0
  9 15  1  0  0  0  0
 11 12  1  6  0  0  0
 11 17  1  0  0  0  0
 13 14  1  6  0  0  0
 13 19  1  0  0  0  0
 15 16  1  1  0  0  0
 15 20  1  0  0  0  0
 16 34  1  0  0  0  0
 17 18  1  1  0  0  0
 17 22  1  0  0  0  0
 19  2  1  1  0  0  0
 19 24  1  0  0  0  0
 20 21  1  6  0  0  0
 20 26  1  0  0  0  0
 20 33  1  0  0  0  0
 22 23  1  6  0  0  0
 22 28  1  0  0  0  0
 24 25  1  6  0  0  0
 24 30  1  0  0  0  0
 26 27  1  0  0  0  0
 28 29  1  1  0  0  0
 28 32  1  0  0  0  0
 30 31  1  1  0  0  0
M  END
>  <CHROM.1>
-161.41012675,-163.31973323,-97.67586992,-52.01796597,89.62958394,-165.56534098
20.45976496,28.90717686,36.42888942,2.34329347,0.38506839,-2.97032112

>  <Name>
ligand

>  <RI>
0

>  <Rbt.Current_Directory>
/home/itssahil/PROJECTS/Mol_Feturizer/New_Systems/rnas/4p3s

>  <Rbt.Executable>
rbdock ($Id: //depot/dev/client3/rdock/2013.1/src/exe/rbdock.cxx#4 $)

>  <Rbt.Library>
libRbt.so (2013.1, Build901 2013/11/27)

>  <Rbt.Parameter_File>
/export/apps/rDock/src/rDock_2013.1_src/data/scripts/dock_solv.prm

>  <Rbt.Receptor>
prm/pocket_docking_3.prm

>  <SCORE>
-18.9703

>  <SCORE.INTER>
-15.2751

>  <SCORE.INTER.CONST>
1

>  <SCORE.INTER.POLAR>
0

>  <SCORE.INTER.ROT>
6

>  <SCORE.INTER.SOLV>
19.5604

>  <SCORE.INTER.VDW>
-24.3036

>  <SCORE.INTER.norm>
-0.449268

>  <SCORE.INTRA>
-3.6952

>  <SCORE.INTRA.DIHEDRAL>
-7.3266

>  <SCORE.INTRA.DIHEDRAL.0>
15.8194

>  <SCORE.INTRA.POLAR>
0

>  <SCORE.INTRA.POLAR.0>
0

>  <SCORE.INTRA.REPUL>
0

>  <SCORE.INTRA.REPUL.0>
0

>  <SCORE.INTRA.SOLV>
0.145058

>  <SCORE.INTRA.SOLV.lig_0>
-71.9159

>  <SCORE.INTRA.VDW>
-0.104427

>  <SCORE.INTRA.VDW.0>
-3.53918

>  <SCORE.INTRA.norm>
-0.108682

>  <SCORE.RESTR>
0

>  <SCORE.RESTR.CAVITY>
0

>  <SCORE.RESTR.norm>
0

>  <SCORE.SYSTEM>
0

>  <SCORE.SYSTEM.CONST>
0

>  <SCORE.SYSTEM.DIHEDRAL>
0

>  <SCORE.SYSTEM.SOLV>
0

>  <SCORE.SYSTEM.norm>
0

>  <SCORE.heavy>
34

>  <SCORE.norm>
-0.557951

>  <RMSD>
0.896

$$$$
ligand
 OpenBabel01301917533D
libRbt.so/2013.1/901 2013/11/27
 34 36  0  0  0  0  0  0  0  0999 V2000
   18.3768   28.1390   35.2506 C   0  0  2  0  0  0  0  0  0  0  0  0
   18.9138   27.4823   36.4033 O   0  0  0  0  0  0  0  0  0  0  0  0
   22.6166   27.7371   38.5543 C   0  0  2  0  0  0  0  0  0  0  0  0
   24.0446   27.6667   38.8924 N   0  0  0  0  0  0  0  0  0  0  0  0
   24.1398   30.6021   37.6986 C   0  0  2  0  0  0  0  0  0  0  0  0
   16.8056   28.0966   35.3527 C   0  0  2  0  0  0  0  0  0  0  0  0
   16.3414   28.7596   36.5818 N   0  0  0  0  0  0  0  0  0  0  0  0
   22.1794   26.3231   38.0265 C   0  0  0  0  0  0  0  0  0  0  0  0
   24.3435   31.8153   38.6897 C   0  0  2  0  0  0  0  0  0  0  0  0
   24.2321   31.3776   40.0330 O   0  0  0  0  0  0  0  0  0  0  0  0
   16.3036   26.6216   35.3176 C   0  0  1  0  0  0  0  0  0  0  0  0
   14.8677   26.5781   35.4107 O   0  0  0  0  0  0  0  0  0  0  0  0
   20.6497   26.3939   37.6840 C   0  0  2  0  0  0  0  0  0  0  0  0
   20.1650   25.0816   37.1689 N   0  0  0  0  0  0  0  0  0  0  0  0
   23.2421   32.8968   38.3746 C   0  0  1  0  0  0  0  0  0  0  0  0
   23.3550   34.0464   39.2947 N   0  0  0  0  0  0  0  0  0  0  0  0
   16.8103   25.9648   34.0122 C   0  0  2  0  0  0  0  0  0  0  0  0
   16.3494   24.6112   33.9542 O   0  0  0  0  0  0  0  0  0  0  0  0
   20.3717   27.4889   36.6102 C   0  0  2  0  0  0  0  0  0  0  0  0
   23.4003   33.3676   36.8942 C   0  0  1  0  0  0  0  0  0  0  0  0
   24.6837   33.9664   36.7473 O   0  0  0  0  0  0  0  0  0  0  0  0
   18.3975   26.0431   33.9831 C   0  0  2  0  0  0  0  0  0  0  0  0
   18.8537   27.4491   34.0544 O   0  0  0  0  0  0  0  0  0  0  0  0
   20.8767   28.8595   37.1373 C   0  0  2  0  0  0  0  0  0  0  0  0
   20.6395   29.8359   36.1254 O   0  0  0  0  0  0  0  0  0  0  0  0
   23.2807   32.1254   35.9538 C   0  0  0  0  0  0  0  0  0  0  0  0
   24.2726   31.0824   36.3092 O   0  0  0  0  0  0  0  0  0  0  0  0
   19.0055   25.4087   32.6992 C   0  0  2  0  0  0  0  0  0  0  0  0
   18.2627   25.8505   31.5576 O   0  0  0  0  0  0  0  0  0  0  0  0
   22.3970   28.8390   37.4318 C   0  0  1  0  0  0  0  0  0  0  0  0
   22.7698   30.1486   37.9423 O   0  0  0  0  0  0  0  0  0  0  0  0
   18.9537   23.8971   32.7293 C   0  0  0  0  0  0  0  0  0  0  0  0
   22.3499   34.4081   36.5032 C   0  0  0  0  0  0  0  0  0  0  0  0
   22.3778   33.8360   40.3909 C   0  0  0  0  0  0  0  0  0  0  0  0
  1  2  1  1  0  0  0
  1  6  1  0  0  0  0
  1 23  1  0  0  0  0
  3  4  1  6  0  0  0
  3  8  1  0  0  0  0
  3 30  1  0  0  0  0
  5  9  1  0  0  0  0
  5 27  1  0  0  0  0
  5 31  1  6  0  0  0
  6  7  1  1  0  0  0
  6 11  1  0  0  0  0
  8 13  1  0  0  0  0
  9 10  1  1  0  0  0
  9 15  1  0  0  0  0
 11 12  1  6  0  0  0
 11 17  1  0  0  0  0
 13 14  1  6  0  0  0
 13 19  1  0  0  0  0
 15 16  1  1  0  0  0
 15 20  1  0  0  0  0
 16 34  1  0  0  0  0
 17 18  1  1  0  0  0
 17 22  1  0  0  0  0
 19  2  1  1  0  0  0
 19 24  1  0  0  0  0
 20 21  1  6  0  0  0
 20 26  1  0  0  0  0
 20 33  1  0  0  0  0
 22 23  1  6  0  0  0
 22 28  1  0  0  0  0
 24 25  1  6  0  0  0
 24 30  1  0  0  0  0
 26 27  1  0  0  0  0
 28 29  1  6  0  0  0
 28 32  1  0  0  0  0
 30 31  1  1  0  0  0
M  END
>  <CHROM.1>
-174.66994543,-164.79556956,-96.99777285,45.08662237,93.16165956,-164.65074187
20.71456436,28.91621361,36.44086789,2.41154601,0.56855028,-3.14069463

>  <Name>
ligand

>  <RI>
0

>  <Rbt.Current_Directory>
/home/itssahil/PROJECTS/Mol_Feturizer/New_Systems/rnas/4p3s

>  <Rbt.Executable>
rbdock ($Id: //depot/dev/client3/rdock/2013.1/src/exe/rbdock.cxx#4 $)

>  <Rbt.Library>
libRbt.so (2013.1, Build901 2013/11/27)

>  <Rbt.Parameter_File>
/export/apps/rDock/src/rDock_2013.1_src/data/scripts/dock_solv.prm

>  <Rbt.Receptor>
prm/pocket_docking_4.prm

>  <SCORE>
-19.2066

>  <SCORE.INTER>
-15.1951

>  <SCORE.INTER.CONST>
1

>  <SCORE.INTER.POLAR>
0

>  <SCORE.INTER.ROT>
6

>  <SCORE.INTER.SOLV>
21.3695

>  <SCORE.INTER.VDW>
-24.8532

>  <SCORE.INTER.norm>
-0.446914

>  <SCORE.INTRA>
-4.01153

>  <SCORE.INTRA.DIHEDRAL>
-7.70525

>  <SCORE.INTRA.DIHEDRAL.0>
15.8194

>  <SCORE.INTRA.POLAR>
0

>  <SCORE.INTRA.POLAR.0>
0

>  <SCORE.INTRA.REPUL>
0

>  <SCORE.INTRA.REPUL.0>
0

>  <SCORE.INTRA.SOLV>
-0.421728

>  <SCORE.INTRA.SOLV.lig_0>
-71.9159

>  <SCORE.INTRA.VDW>
0.0519544

>  <SCORE.INTRA.VDW.0>
-3.53918

>  <SCORE.INTRA.norm>
-0.117986

>  <SCORE.RESTR>
0

>  <SCORE.RESTR.CAVITY>
0

>  <SCORE.RESTR.norm>
0

>  <SCORE.SYSTEM>
0

>  <SCORE.SYSTEM.CONST>
0

>  <SCORE.SYSTEM.DIHEDRAL>
0

>  <SCORE.SYSTEM.SOLV>
0

>  <SCORE.SYSTEM.norm>
0

>  <SCORE.heavy>
34

>  <SCORE.norm>
-0.5649

>  <RMSD>
0.902

$$$$
ligand
 OpenBabel01301917533D
libRbt.so/2013.1/901 2013/11/27
 34 36  0  0  0  0  0  0  0  0999 V2000
   18.1877   28.0370   35.0216 C   0  0  2  0  0  0  0  0  0  0  0  0
   18.7359   27.3519   36.1523 O   0  0  0  0  0  0  0  0  0  0  0  0
   22.4189   27.6660   38.3291 C   0  0  2  0  0  0  0  0  0  0  0  0
   23.8461   27.6240   38.6754 N   0  0  0  0  0  0  0  0  0  0  0  0
   23.9102   30.5285   37.6095 C   0  0  2  0  0  0  0  0  0  0  0  0
   16.6624   28.3069   35.3070 C   0  0  2  0  0  0  0  0  0  0  0  0
   16.4912   29.1133   36.5261 N   0  0  0  0  0  0  0  0  0  0  0  0
   22.0170   26.2484   37.7831 C   0  0  0  0  0  0  0  0  0  0  0  0
   24.0545   31.7201   38.6365 C   0  0  2  0  0  0  0  0  0  0  0  0
   23.8416   31.2583   39.9593 O   0  0  0  0  0  0  0  0  0  0  0  0
   15.8938   26.9581   35.4448 C   0  0  1  0  0  0  0  0  0  0  0  0
   14.4989   27.2001   35.7059 O   0  0  0  0  0  0  0  0  0  0  0  0
   20.4882   26.2886   37.4318 C   0  0  2  0  0  0  0  0  0  0  0  0
   20.0363   24.9716   36.8993 N   0  0  0  0  0  0  0  0  0  0  0  0
   22.9902   32.8206   38.2643 C   0  0  1  0  0  0  0  0  0  0  0  0
   23.0485   33.9511   39.2127 N   0  0  0  0  0  0  0  0  0  0  0  0
   16.0978   26.1454   34.1449 C   0  0  2  0  0  0  0  0  0  0  0  0
   15.3889   24.9063   34.2459 O   0  0  0  0  0  0  0  0  0  0  0  0
   20.1919   27.3890   36.3684 C   0  0  2  0  0  0  0  0  0  0  0  0
   23.2601   33.3175   36.8088 C   0  0  1  0  0  0  0  0  0  0  0  0
   24.5571   33.9035   36.7667 O   0  0  0  0  0  0  0  0  0  0  0  0
   17.6547   25.9114   33.9270 C   0  0  2  0  0  0  0  0  0  0  0  0
   18.3705   27.2035   33.8357 O   0  0  0  0  0  0  0  0  0  0  0  0
   20.6627   28.7646   36.9138 C   0  0  2  0  0  0  0  0  0  0  0  0
   20.4096   29.7467   35.9111 O   0  0  0  0  0  0  0  0  0  0  0  0
   23.1957   32.0949   35.8378 C   0  0  0  0  0  0  0  0  0  0  0  0
   24.1482   31.0335   36.2431 O   0  0  0  0  0  0  0  0  0  0  0  0
   17.9643   25.1021   32.6349 C   0  0  2  0  0  0  0  0  0  0  0  0
   17.3000   23.8355   32.7012 O   0  0  0  0  0  0  0  0  0  0  0  0
   22.1812   28.7751   37.2175 C   0  0  1  0  0  0  0  0  0  0  0  0
   22.5213   30.0870   37.7447 O   0  0  0  0  0  0  0  0  0  0  0  0
   19.4447   24.8409   32.4654 C   0  0  0  0  0  0  0  0  0  0  0  0
   22.2518   34.3778   36.3638 C   0  0  0  0  0  0  0  0  0  0  0  0
   21.9724   33.7476   40.2134 C   0  0  0  0  0  0  0  0  0  0  0  0
  1  2  1  1  0  0  0
  1  6  1  0  0  0  0
  1 23  1  0  0  0  0
  3  4  1  6  0  0  0
  3  8  1  0  0  0  0
  3 30  1  0  0  0  0
  5  9  1  0  0  0  0
  5 27  1  0  0  0  0
  5 31  1  6  0  0  0
  6  7  1  1  0  0  0
  6 11  1  0  0  0  0
  8 13  1  0  0  0  0
  9 10  1  1  0  0  0
  9 15  1  0  0  0  0
 11 12  1  6  0  0  0
 11 17  1  0  0  0  0
 13 14  1  6  0  0  0
 13 19  1  0  0  0  0
 15 16  1  1  0  0  0
 15 20  1  0  0  0  0
 16 34  1  0  0  0  0
 17 18  1  1  0  0  0
 17 22  1  0  0  0  0
 19  2  1  1  0  0  0
 19 24  1  0  0  0  0
 20 21  1  6  0  0  0
 20 26  1  0  0  0  0
 20 33  1  0  0  0  0
 22 23  1  6  0  0  0
 22 28  1  0  0  0  0
 24 25  1  6  0  0  0
 24 30  1  0  0  0  0
 26 27  1  0  0  0  0
 28 29  1  1  0  0  0
 28 32  1  0  0  0  0
 30 31  1  1  0  0  0
M  END
>  <CHROM.1>
-158.95737242,-166.32064273,-98.26180260,-58.32089499,88.36303167,-162.89594681
20.42066077,28.86594841,36.37469237,2.34325771,0.38306255,-2.97267279

>  <Name>
ligand

>  <RI>
0

>  <Rbt.Current_Directory>
/home/itssahil/PROJECTS/Mol_Feturizer/New_Systems/rnas/4p3s

>  <Rbt.Executable>
rbdock ($Id: //depot/dev/client3/rdock/2013.1/src/exe/rbdock.cxx#4 $)

>  <Rbt.Library>
libRbt.so (2013.1, Build901 2013/11/27)

>  <Rbt.Parameter_File>
/export/apps/rDock/src/rDock_2013.1_src/data/scripts/dock_solv.prm

>  <Rbt.Receptor>
prm/pocket_docking_3.prm

>  <SCORE>
-19.0627

>  <SCORE.INTER>
-15.3556

>  <SCORE.INTER.CONST>
1

>  <SCORE.INTER.POLAR>
0

>  <SCORE.INTER.ROT>
6

>  <SCORE.INTER.SOLV>
19.9679

>  <SCORE.INTER.VDW>
-24.4931

>  <SCORE.INTER.norm>
-0.451636

>  <SCORE.INTRA>
-3.70704

>  <SCORE.INTRA.DIHEDRAL>
-7.41304

>  <SCORE.INTRA.DIHEDRAL.0>
15.8194

>  <SCORE.INTRA.POLAR>
0

>  <SCORE.INTRA.POLAR.0>
0

>  <SCORE.INTRA.REPUL>
0

>  <SCORE.INTRA.REPUL.0>
0

>  <SCORE.INTRA.SOLV>
0.040976

>  <SCORE.INTRA.SOLV.lig_0>
-71.9159

>  <SCORE.INTRA.VDW>
-0.0210074

>  <SCORE.INTRA.VDW.0>
-3.53918

>  <SCORE.INTRA.norm>
-0.109031

>  <SCORE.RESTR>
0

>  <SCORE.RESTR.CAVITY>
0

>  <SCORE.RESTR.norm>
0

>  <SCORE.SYSTEM>
0

>  <SCORE.SYSTEM.CONST>
0

>  <SCORE.SYSTEM.DIHEDRAL>
0

>  <SCORE.SYSTEM.SOLV>
0

>  <SCORE.SYSTEM.norm>
0

>  <SCORE.heavy>
34

>  <SCORE.norm>
-0.560667

>  <RMSD>
0.913

$$$$
ligand
 OpenBabel01301917533D
libRbt.so/2013.1/901 2013/11/27
 34 36  0  0  0  0  0  0  0  0999 V2000
   18.2057   28.0947   35.0576 C   0  0  2  0  0  0  0  0  0  0  0  0
   18.7495   27.3855   36.1754 O   0  0  0  0  0  0  0  0  0  0  0  0
   22.4268   27.6814   38.3644 C   0  0  2  0  0  0  0  0  0  0  0  0
   23.8527   27.6325   38.7153 N   0  0  0  0  0  0  0  0  0  0  0  0
   23.9314   30.5420   37.6398 C   0  0  2  0  0  0  0  0  0  0  0  0
   16.6835   28.3740   35.3506 C   0  0  2  0  0  0  0  0  0  0  0  0
   16.5222   29.1613   36.5835 N   0  0  0  0  0  0  0  0  0  0  0  0
   22.0199   26.2659   37.8167 C   0  0  0  0  0  0  0  0  0  0  0  0
   24.0744   31.7501   38.6474 C   0  0  2  0  0  0  0  0  0  0  0  0
   23.8607   31.3097   39.9774 O   0  0  0  0  0  0  0  0  0  0  0  0
   15.9025   27.0303   35.4672 C   0  0  1  0  0  0  0  0  0  0  0  0
   14.5105   27.2810   35.7352 O   0  0  0  0  0  0  0  0  0  0  0  0
   20.4925   26.3135   37.4604 C   0  0  2  0  0  0  0  0  0  0  0  0
   20.0361   24.9988   36.9260 N   0  0  0  0  0  0  0  0  0  0  0  0
   23.0099   32.8439   38.2566 C   0  0  1  0  0  0  0  0  0  0  0  0
   23.0669   33.9896   39.1867 N   0  0  0  0  0  0  0  0  0  0  0  0
   16.0964   26.2378   34.1533 C   0  0  2  0  0  0  0  0  0  0  0  0
   15.3761   25.0039   34.2348 O   0  0  0  0  0  0  0  0  0  0  0  0
   20.2050   27.4155   36.3963 C   0  0  2  0  0  0  0  0  0  0  0  0
   23.2807   33.3173   36.7934 C   0  0  1  0  0  0  0  0  0  0  0  0
   24.5774   33.9032   36.7429 O   0  0  0  0  0  0  0  0  0  0  0  0
   17.6506   25.9930   33.9284 C   0  0  2  0  0  0  0  0  0  0  0  0
   18.3783   27.2796   33.8574 O   0  0  0  0  0  0  0  0  0  0  0  0
   20.6805   28.7887   36.9436 C   0  0  2  0  0  0  0  0  0  0  0  0
   20.4354   29.7723   35.9404 O   0  0  0  0  0  0  0  0  0  0  0  0
   23.2176   32.0792   35.8424 C   0  0  0  0  0  0  0  0  0  0  0  0
   24.1703   31.0249   36.2655 O   0  0  0  0  0  0  0  0  0  0  0  0
   17.9501   25.2027   32.6222 C   0  0  2  0  0  0  0  0  0  0  0  0
   17.2148   23.9742   32.6349 O   0  0  0  0  0  0  0  0  0  0  0  0
   22.1981   28.7919   37.2523 C   0  0  1  0  0  0  0  0  0  0  0  0
   22.5427   30.1020   37.7810 O   0  0  0  0  0  0  0  0  0  0  0  0
   19.4178   24.8631   32.4837 C   0  0  0  0  0  0  0  0  0  0  0  0
   22.2722   34.3698   36.3306 C   0  0  0  0  0  0  0  0  0  0  0  0
   22.0518   33.7556   40.2429 C   0  0  0  0  0  0  0  0  0  0  0  0
  1  2  1  1  0  0  0
  1  6  1  0  0  0  0
  1 23  1  0  0  0  0
  3  4  1  6  0  0  0
  3  8  1  0  0  0  0
  3 30  1  0  0  0  0
  5  9  1  0  0  0  0
  5 27  1  0  0  0  0
  5 31  1  6  0  0  0
  6  7  1  1  0  0  0
  6 11  1  0  0  0  0
  8 13  1  0  0  0  0
  9 10  1  1  0  0  0
  9 15  1  0  0  0  0
 11 12  1  6  0  0  0
 11 17  1  0  0  0  0
 13 14  1  6  0  0  0
 13 19  1  0  0  0  0
 15 16  1  1  0  0  0
 15 20  1  0  0  0  0
 16 34  1  0  0  0  0
 17 18  1  1  0  0  0
 17 22  1  0  0  0  0
 19  2  1  1  0  0  0
 19 24  1  0  0  0  0
 20 21  1  6  0  0  0
 20 26  1  0  0  0  0
 20 33  1  0  0  0  0
 22 23  1  6  0  0  0
 22 28  1  0  0  0  0
 24 25  1  6  0  0  0
 24 30  1  0  0  0  0
 26 27  1  0  0  0  0
 28 29  1  1  0  0  0
 28 32  1  0  0  0  0
 30 31  1  1  0  0  0
M  END
>  <CHROM.1>
-158.39667806,-167.49971624,-94.46917281,-55.11903761,88.89755632,-164.02304808
20.43121491,28.90450122,36.38909691,2.35649014,0.39652577,-2.98639005

>  <Name>
ligand

>  <RI>
0

>  <Rbt.Current_Directory>
/home/itssahil/PROJECTS/Mol_Feturizer/New_Systems/rnas/4p3s

>  <Rbt.Executable>
rbdock ($Id: //depot/dev/client3/rdock/2013.1/src/exe/rbdock.cxx#4 $)

>  <Rbt.Library>
libRbt.so (2013.1, Build901 2013/11/27)

>  <Rbt.Parameter_File>
/export/apps/rDock/src/rDock_2013.1_src/data/scripts/dock_solv.prm

>  <Rbt.Receptor>
prm/pocket_docking_3.prm

>  <SCORE>
-19.1271

>  <SCORE.INTER>
-15.4783

>  <SCORE.INTER.CONST>
1

>  <SCORE.INTER.POLAR>
0

>  <SCORE.INTER.ROT>
6

>  <SCORE.INTER.SOLV>
20.0939

>  <SCORE.INTER.VDW>
-24.6168

>  <SCORE.INTER.norm>
-0.455243

>  <SCORE.INTRA>
-3.64888

>  <SCORE.INTRA.DIHEDRAL>
-7.55082

>  <SCORE.INTRA.DIHEDRAL.0>
15.8194

>  <SCORE.INTRA.POLAR>
0

>  <SCORE.INTRA.POLAR.0>
0

>  <SCORE.INTRA.REPUL>
0

>  <SCORE.INTRA.REPUL.0>
0

>  <SCORE.INTRA.SOLV>
-0.00126807

>  <SCORE.INTRA.SOLV.lig_0>
-71.9159

>  <SCORE.INTRA.VDW>
0.127161

>  <SCORE.INTRA.VDW.0>
-3.53918

>  <SCORE.INTRA.norm>
-0.10732

>  <SCORE.RESTR>
0

>  <SCORE.RESTR.CAVITY>
0

>  <SCORE.RESTR.norm>
0

>  <SCORE.SYSTEM>
0

>  <SCORE.SYSTEM.CONST>
0

>  <SCORE.SYSTEM.DIHEDRAL>
0

>  <SCORE.SYSTEM.SOLV>
0

>  <SCORE.SYSTEM.norm>
0

>  <SCORE.heavy>
34

>  <SCORE.norm>
-0.562563

>  <RMSD>
0.915

$$$$
ligand
 OpenBabel01301917533D
libRbt.so/2013.1/901 2013/11/27
 34 36  0  0  0  0  0  0  0  0999 V2000
   18.4695   27.8233   34.7153 C   0  0  2  0  0  0  0  0  0  0  0  0
   18.9341   27.3172   35.9708 O   0  0  0  0  0  0  0  0  0  0  0  0
   22.3669   28.1825   38.3934 C   0  0  2  0  0  0  0  0  0  0  0  0
   23.7526   28.2713   38.8737 N   0  0  0  0  0  0  0  0  0  0  0  0
   22.9705   31.3228   36.3362 C   0  0  2  0  0  0  0  0  0  0  0  0
   16.9039   27.6571   34.6715 C   0  0  2  0  0  0  0  0  0  0  0  0
   16.2677   28.3828   35.7826 N   0  0  0  0  0  0  0  0  0  0  0  0
   22.0683   26.6741   38.0699 C   0  0  0  0  0  0  0  0  0  0  0  0
   23.7664   32.4632   37.0855 C   0  0  2  0  0  0  0  0  0  0  0  0
   24.8525   31.9112   37.8096 O   0  0  0  0  0  0  0  0  0  0  0  0
   16.5210   26.1474   34.7292 C   0  0  1  0  0  0  0  0  0  0  0  0
   15.0906   25.9908   34.6895 O   0  0  0  0  0  0  0  0  0  0  0  0
   20.5822   26.5776   37.5755 C   0  0  2  0  0  0  0  0  0  0  0  0
   20.2292   25.1679   37.2429 N   0  0  0  0  0  0  0  0  0  0  0  0
   22.7718   33.1936   38.0652 C   0  0  1  0  0  0  0  0  0  0  0  0
   23.4654   34.2521   38.8264 N   0  0  0  0  0  0  0  0  0  0  0  0
   17.2066   25.4248   33.5460 C   0  0  2  0  0  0  0  0  0  0  0  0
   16.8577   24.0372   33.5734 O   0  0  0  0  0  0  0  0  0  0  0  0
   20.3590   27.4629   36.3122 C   0  0  2  0  0  0  0  0  0  0  0  0
   21.5961   33.8012   37.2365 C   0  0  1  0  0  0  0  0  0  0  0  0
   22.1324   34.7604   36.3312 O   0  0  0  0  0  0  0  0  0  0  0  0
   18.7780   25.6343   33.6601 C   0  0  2  0  0  0  0  0  0  0  0  0
   19.1169   27.0747   33.6405 O   0  0  0  0  0  0  0  0  0  0  0  0
   20.7276   28.9333   36.6489 C   0  0  2  0  0  0  0  0  0  0  0  0
   20.5450   29.7148   35.4700 O   0  0  0  0  0  0  0  0  0  0  0  0
   20.8922   32.6541   36.4427 C   0  0  0  0  0  0  0  0  0  0  0  0
   21.8540   31.9251   35.5816 O   0  0  0  0  0  0  0  0  0  0  0  0
   19.5601   24.9444   32.5057 C   0  0  2  0  0  0  0  0  0  0  0  0
   18.8943   25.2026   31.2646 O   0  0  0  0  0  0  0  0  0  0  0  0
   22.2066   29.0711   37.0868 C   0  0  1  0  0  0  0  0  0  0  0  0
   22.4491   30.4692   37.4047 O   0  0  0  0  0  0  0  0  0  0  0  0
   19.6395   23.4445   32.6859 C   0  0  0  0  0  0  0  0  0  0  0  0
   20.5725   34.5133   38.1221 C   0  0  0  0  0  0  0  0  0  0  0  0
   23.5132   33.8207   40.2450 C   0  0  0  0  0  0  0  0  0  0  0  0
  1  2  1  1  0  0  0
  1  6  1  0  0  0  0
  1 23  1  0  0  0  0
  3  4  1  6  0  0  0
  3  8  1  0  0  0  0
  3 30  1  0  0  0  0
  5  9  1  0  0  0  0
  5 27  1  0  0  0  0
  5 31  1  1  0  0  0
  6  7  1  1  0  0  0
  6 11  1  0  0  0  0
  8 13  1  0  0  0  0
  9 10  1  1  0  0  0
  9 15  1  0  0  0  0
 11 12  1  6  0  0  0
 11 17  1  0  0  0  0
 13 14  1  6  0  0  0
 13 19  1  0  0  0  0
 15 16  1  6  0  0  0
 15 20  1  0  0  0  0
 16 34  1  0  0  0  0
 17 18  1  1  0  0  0
 17 22  1  0  0  0  0
 19  2  1  1  0  0  0
 19 24  1  0  0  0  0
 20 21  1  6  0  0  0
 20 26  1  0  0  0  0
 20 33  1  0  0  0  0
 22 23  1  6  0  0  0
 22 28  1  0  0  0  0
 24 25  1  6  0  0  0
 24 30  1  0  0  0  0
 26 27  1  0  0  0  0
 28 29  1  6  0  0  0
 28 32  1  0  0  0  0
 30 31  1  1  0  0  0
M  END
>  <CHROM.1>
-174.78203062,-169.05157534,-111.91520850,44.15017411,151.57389887,-152.97043581
20.45897783,28.95515062,36.04806244,2.20284176,0.55536735,-3.01532857

>  <Name>
ligand

>  <RI>
0

>  <Rbt.Current_Directory>
/home/itssahil/PROJECTS/Mol_Feturizer/New_Systems/rnas/4p3s

>  <Rbt.Executable>
rbdock ($Id: //depot/dev/client3/rdock/2013.1/src/exe/rbdock.cxx#4 $)

>  <Rbt.Library>
libRbt.so (2013.1, Build901 2013/11/27)

>  <Rbt.Parameter_File>
/export/apps/rDock/src/rDock_2013.1_src/data/scripts/dock_solv.prm

>  <Rbt.Receptor>
prm/pocket_docking_3.prm

>  <SCORE>
-16.2287

>  <SCORE.INTER>
-12.586

>  <SCORE.INTER.CONST>
1

>  <SCORE.INTER.POLAR>
0

>  <SCORE.INTER.ROT>
6

>  <SCORE.INTER.SOLV>
20.8776

>  <SCORE.INTER.VDW>
-22.9498

>  <SCORE.INTER.norm>
-0.370176

>  <SCORE.INTRA>
-3.64275

>  <SCORE.INTRA.DIHEDRAL>
-6.73606

>  <SCORE.INTRA.DIHEDRAL.0>
15.8194

>  <SCORE.INTRA.POLAR>
0

>  <SCORE.INTRA.POLAR.0>
0

>  <SCORE.INTRA.REPUL>
0

>  <SCORE.INTRA.REPUL.0>
0

>  <SCORE.INTRA.SOLV>
-1.19239

>  <SCORE.INTRA.SOLV.lig_0>
-71.9159

>  <SCORE.INTRA.VDW>
0.321477

>  <SCORE.INTRA.VDW.0>
-3.53918

>  <SCORE.INTRA.norm>
-0.10714

>  <SCORE.RESTR>
0

>  <SCORE.RESTR.CAVITY>
0

>  <SCORE.RESTR.norm>
0

>  <SCORE.SYSTEM>
0

>  <SCORE.SYSTEM.CONST>
0

>  <SCORE.SYSTEM.DIHEDRAL>
0

>  <SCORE.SYSTEM.SOLV>
0

>  <SCORE.SYSTEM.norm>
0

>  <SCORE.heavy>
34

>  <SCORE.norm>
-0.477315

>  <RMSD>
0.917

$$$$
ligand
 OpenBabel01301917533D
libRbt.so/2013.1/901 2013/11/27
 34 36  0  0  0  0  0  0  0  0999 V2000
   18.4618   28.2083   35.2993 C   0  0  2  0  0  0  0  0  0  0  0  0
   18.9736   27.5321   36.4521 O   0  0  0  0  0  0  0  0  0  0  0  0
   22.6626   27.6904   38.6358 C   0  0  2  0  0  0  0  0  0  0  0  0
   24.0857   27.5853   38.9857 N   0  0  0  0  0  0  0  0  0  0  0  0
   24.2270   30.5682   37.7205 C   0  0  2  0  0  0  0  0  0  0  0  0
   16.8891   28.1974   35.3854 C   0  0  2  0  0  0  0  0  0  0  0  0
   16.4261   28.8604   36.6150 N   0  0  0  0  0  0  0  0  0  0  0  0
   22.1974   26.2895   38.0972 C   0  0  0  0  0  0  0  0  0  0  0  0
   24.4649   31.7942   38.6879 C   0  0  2  0  0  0  0  0  0  0  0  0
   24.4268   31.3693   40.0394 O   0  0  0  0  0  0  0  0  0  0  0  0
   16.3574   26.7333   35.3338 C   0  0  1  0  0  0  0  0  0  0  0  0
   14.9201   26.7186   35.4124 O   0  0  0  0  0  0  0  0  0  0  0  0
   20.6727   26.3975   37.7420 C   0  0  2  0  0  0  0  0  0  0  0  0
   20.1622   25.0993   37.2162 N   0  0  0  0  0  0  0  0  0  0  0  0
   23.3353   32.8588   38.4180 C   0  0  1  0  0  0  0  0  0  0  0  0
   23.4798   34.0194   39.3198 N   0  0  0  0  0  0  0  0  0  0  0  0
   16.8638   26.0762   34.0285 C   0  0  2  0  0  0  0  0  0  0  0  0
   16.3759   24.7328   33.9554 O   0  0  0  0  0  0  0  0  0  0  0  0
   20.4294   27.5038   36.6714 C   0  0  2  0  0  0  0  0  0  0  0  0
   23.4129   33.3159   36.9269 C   0  0  1  0  0  0  0  0  0  0  0  0
   24.6796   33.9287   36.7097 O   0  0  0  0  0  0  0  0  0  0  0  0
   18.4525   26.1221   34.0157 C   0  0  2  0  0  0  0  0  0  0  0  0
   18.9365   27.5178   34.1025 O   0  0  0  0  0  0  0  0  0  0  0  0
   20.9614   28.8597   37.2098 C   0  0  2  0  0  0  0  0  0  0  0  0
   20.7556   29.8463   36.2008 O   0  0  0  0  0  0  0  0  0  0  0  0
   23.2620   32.0625   36.0062 C   0  0  0  0  0  0  0  0  0  0  0  0
   24.2837   31.0355   36.3214 O   0  0  0  0  0  0  0  0  0  0  0  0
   19.0603   25.4851   32.7331 C   0  0  2  0  0  0  0  0  0  0  0  0
   18.3167   25.9238   31.5907 O   0  0  0  0  0  0  0  0  0  0  0  0
   22.4782   28.8026   37.5171 C   0  0  1  0  0  0  0  0  0  0  0  0
   22.8768   30.1007   38.0374 O   0  0  0  0  0  0  0  0  0  0  0  0
   19.0095   23.9735   32.7666 C   0  0  0  0  0  0  0  0  0  0  0  0
   22.3310   34.3393   36.5792 C   0  0  0  0  0  0  0  0  0  0  0  0
   22.6293   33.7668   40.5088 C   0  0  0  0  0  0  0  0  0  0  0  0
  1  2  1  1  0  0  0
  1  6  1  0  0  0  0
  1 23  1  0  0  0  0
  3  4  1  6  0  0  0
  3  8  1  0  0  0  0
  3 30  1  0  0  0  0
  5  9  1  0  0  0  0
  5 27  1  0  0  0  0
  5 31  1  1  0  0  0
  6  7  1  1  0  0  0
  6 11  1  0  0  0  0
  8 13  1  0  0  0  0
  9 10  1  1  0  0  0
  9 15  1  0  0  0  0
 11 12  1  6  0  0  0
 11 17  1  0  0  0  0
 13 14  1  6  0  0  0
 13 19  1  0  0  0  0
 15 16  1  1  0  0  0
 15 20  1  0  0  0  0
 16 34  1  0  0  0  0
 17 18  1  1  0  0  0
 17 22  1  0  0  0  0
 19  2  1  1  0  0  0
 19 24  1  0  0  0  0
 20 21  1  6  0  0  0
 20 26  1  0  0  0  0
 20 33  1  0  0  0  0
 22 23  1  6  0  0  0
 22 28  1  0  0  0  0
 24 25  1  6  0  0  0
 24 30  1  0  0  0  0
 26 27  1  0  0  0  0
 28 29  1  6  0  0  0
 28 32  1  0  0  0  0
 30 31  1  1  0  0  0
M  END
>  <CHROM.1>
-174.84602132,-164.88826968,-93.34232015,43.61987773,97.71217292,-166.88431925
20.78057429,28.93174044,36.48384169,2.44006433,0.58891716,3.11641166

>  <Name>
ligand

>  <RI>
0

>  <Rbt.Current_Directory>
/home/itssahil/PROJECTS/Mol_Feturizer/New_Systems/rnas/4p3s

>  <Rbt.Executable>
rbdock ($Id: //depot/dev/client3/rdock/2013.1/src/exe/rbdock.cxx#4 $)

>  <Rbt.Library>
libRbt.so (2013.1, Build901 2013/11/27)

>  <Rbt.Parameter_File>
/export/apps/rDock/src/rDock_2013.1_src/data/scripts/dock_solv.prm

>  <Rbt.Receptor>
prm/pocket_docking_4.prm

>  <SCORE>
-19.1534

>  <SCORE.INTER>
-15.3937

>  <SCORE.INTER.CONST>
1

>  <SCORE.INTER.POLAR>
0

>  <SCORE.INTER.ROT>
6

>  <SCORE.INTER.SOLV>
21.445

>  <SCORE.INTER.VDW>
-25.0108

>  <SCORE.INTER.norm>
-0.452755

>  <SCORE.INTRA>
-3.7597

>  <SCORE.INTRA.DIHEDRAL>
-7.16599

>  <SCORE.INTRA.DIHEDRAL.0>
15.8194

>  <SCORE.INTRA.POLAR>
0

>  <SCORE.INTRA.POLAR.0>
0

>  <SCORE.INTRA.REPUL>
0

>  <SCORE.INTRA.REPUL.0>
0

>  <SCORE.INTRA.SOLV>
-0.513956

>  <SCORE.INTRA.SOLV.lig_0>
-71.9159

>  <SCORE.INTRA.VDW>
0.0802691

>  <SCORE.INTRA.VDW.0>
-3.53918

>  <SCORE.INTRA.norm>
-0.11058

>  <SCORE.RESTR>
0

>  <SCORE.RESTR.CAVITY>
0

>  <SCORE.RESTR.norm>
0

>  <SCORE.SYSTEM>
0

>  <SCORE.SYSTEM.CONST>
0

>  <SCORE.SYSTEM.DIHEDRAL>
0

>  <SCORE.SYSTEM.SOLV>
0

>  <SCORE.SYSTEM.norm>
0

>  <SCORE.heavy>
34

>  <SCORE.norm>
-0.563335

>  <RMSD>
0.924

$$$$
ligand
 OpenBabel01301917533D
libRbt.so/2013.1/901 2013/11/27
 34 36  0  0  0  0  0  0  0  0999 V2000
   18.3272   28.0272   35.3124 C   0  0  2  0  0  0  0  0  0  0  0  0
   18.8922   27.3599   36.4454 O   0  0  0  0  0  0  0  0  0  0  0  0
   22.6183   27.6588   38.5500 C   0  0  2  0  0  0  0  0  0  0  0  0
   24.0518   27.6107   38.8685 N   0  0  0  0  0  0  0  0  0  0  0  0
   24.0840   30.5517   37.7233 C   0  0  2  0  0  0  0  0  0  0  0  0
   16.7587   27.9518   35.4339 C   0  0  2  0  0  0  0  0  0  0  0  0
   16.2979   28.5825   36.6812 N   0  0  0  0  0  0  0  0  0  0  0  0
   22.1997   26.2428   38.0125 C   0  0  0  0  0  0  0  0  0  0  0  0
   24.2659   31.7710   38.7110 C   0  0  2  0  0  0  0  0  0  0  0  0
   24.1552   31.3363   40.0554 O   0  0  0  0  0  0  0  0  0  0  0  0
   16.2851   26.4680   35.3774 C   0  0  1  0  0  0  0  0  0  0  0  0
   14.8517   26.3945   35.4883 O   0  0  0  0  0  0  0  0  0  0  0  0
   20.6646   26.2895   37.6910 C   0  0  2  0  0  0  0  0  0  0  0  0
   20.1968   24.9742   37.1678 N   0  0  0  0  0  0  0  0  0  0  0  0
   23.1502   32.8354   38.3877 C   0  0  1  0  0  0  0  0  0  0  0  0
   23.2425   33.9896   39.3043 N   0  0  0  0  0  0  0  0  0  0  0  0
   16.7872   25.8458   34.0535 C   0  0  2  0  0  0  0  0  0  0  0  0
   16.3521   24.4847   33.9760 O   0  0  0  0  0  0  0  0  0  0  0  0
   20.3524   27.3908   36.6331 C   0  0  2  0  0  0  0  0  0  0  0  0
   23.3077   33.3034   36.9063 C   0  0  1  0  0  0  0  0  0  0  0  0
   24.5829   33.9203   36.7628 O   0  0  0  0  0  0  0  0  0  0  0  0
   18.3720   25.9560   34.0053 C   0  0  2  0  0  0  0  0  0  0  0  0
   18.8016   27.3692   34.0972 O   0  0  0  0  0  0  0  0  0  0  0  0
   20.8396   28.7645   37.1687 C   0  0  2  0  0  0  0  0  0  0  0  0
   20.5712   29.7474   36.1709 O   0  0  0  0  0  0  0  0  0  0  0  0
   23.2101   32.0565   35.9698 C   0  0  0  0  0  0  0  0  0  0  0  0
   24.2156   31.0292   36.3328 O   0  0  0  0  0  0  0  0  0  0  0  0
   18.9752   25.3578   32.7020 C   0  0  2  0  0  0  0  0  0  0  0  0
   18.1916   25.7825   31.5813 O   0  0  0  0  0  0  0  0  0  0  0  0
   22.3638   28.7686   37.4429 C   0  0  1  0  0  0  0  0  0  0  0  0
   22.7197   30.0792   37.9629 O   0  0  0  0  0  0  0  0  0  0  0  0
   18.9809   23.8451   32.7169 C   0  0  0  0  0  0  0  0  0  0  0  0
   22.2440   34.3272   36.5075 C   0  0  0  0  0  0  0  0  0  0  0  0
   22.1788   33.8318   40.3262 C   0  0  0  0  0  0  0  0  0  0  0  0
  1  2  1  1  0  0  0
  1  6  1  0  0  0  0
  1 23  1  0  0  0  0
  3  4  1  6  0  0  0
  3  8  1  0  0  0  0
  3 30  1  0  0  0  0
  5  9  1  0  0  0  0
  5 27  1  0  0  0  0
  5 31  1  6  0  0  0
  6  7  1  1  0  0  0
  6 11  1  0  0  0  0
  8 13  1  0  0  0  0
  9 10  1  1  0  0  0
  9 15  1  0  0  0  0
 11 12  1  6  0  0  0
 11 17  1  0  0  0  0
 13 14  1  6  0  0  0
 13 19  1  0  0  0  0
 15 16  1  1  0  0  0
 15 20  1  0  0  0  0
 16 34  1  0  0  0  0
 17 18  1  1  0  0  0
 17 22  1  0  0  0  0
 19  2  1  1  0  0  0
 19 24  1  0  0  0  0
 20 21  1  6  0  0  0
 20 26  1  0  0  0  0
 20 33  1  0  0  0  0
 22 23  1  6  0  0  0
 22 28  1  0  0  0  0
 24 25  1  6  0  0  0
 24 30  1  0  0  0  0
 26 27  1  0  0  0  0
 28 29  1  6  0  0  0
 28 32  1  0  0  0  0
 30 31  1  1  0  0  0
M  END
>  <CHROM.1>
-174.70546834,-165.23152887,-102.16189904,43.84765122,92.27709010,-165.29411046
20.66861137,28.83123781,36.46317923,2.38962777,0.55132645,-3.11751466

>  <Name>
ligand

>  <RI>
0

>  <Rbt.Current_Directory>
/home/itssahil/PROJECTS/Mol_Feturizer/New_Systems/rnas/4p3s

>  <Rbt.Executable>
rbdock ($Id: //depot/dev/client3/rdock/2013.1/src/exe/rbdock.cxx#4 $)

>  <Rbt.Library>
libRbt.so (2013.1, Build901 2013/11/27)

>  <Rbt.Parameter_File>
/export/apps/rDock/src/rDock_2013.1_src/data/scripts/dock_solv.prm

>  <Rbt.Receptor>
prm/pocket_docking_3.prm

>  <SCORE>
-19.0448

>  <SCORE.INTER>
-14.8645

>  <SCORE.INTER.CONST>
1

>  <SCORE.INTER.POLAR>
0

>  <SCORE.INTER.ROT>
6

>  <SCORE.INTER.SOLV>
21.2174

>  <SCORE.INTER.VDW>
-24.5821

>  <SCORE.INTER.norm>
-0.437192

>  <SCORE.INTRA>
-4.18029

>  <SCORE.INTRA.DIHEDRAL>
-7.74544

>  <SCORE.INTRA.DIHEDRAL.0>
15.8194

>  <SCORE.INTRA.POLAR>
0

>  <SCORE.INTRA.POLAR.0>
0

>  <SCORE.INTRA.REPUL>
0

>  <SCORE.INTRA.REPUL.0>
0

>  <SCORE.INTRA.SOLV>
-0.450969

>  <SCORE.INTRA.SOLV.lig_0>
-71.9159

>  <SCORE.INTRA.VDW>
-0.0820908

>  <SCORE.INTRA.VDW.0>
-3.53918

>  <SCORE.INTRA.norm>
-0.12295

>  <SCORE.RESTR>
0

>  <SCORE.RESTR.CAVITY>
0

>  <SCORE.RESTR.norm>
0

>  <SCORE.SYSTEM>
0

>  <SCORE.SYSTEM.CONST>
0

>  <SCORE.SYSTEM.DIHEDRAL>
0

>  <SCORE.SYSTEM.SOLV>
0

>  <SCORE.SYSTEM.norm>
0

>  <SCORE.heavy>
34

>  <SCORE.norm>
-0.560142

>  <RMSD>
0.926

$$$$
ligand
 OpenBabel01301917533D
libRbt.so/2013.1/901 2013/11/27
 34 36  0  0  0  0  0  0  0  0999 V2000
   18.3560   27.6871   34.9420 C   0  0  2  0  0  0  0  0  0  0  0  0
   18.8425   27.2725   36.2225 O   0  0  0  0  0  0  0  0  0  0  0  0
   22.4435   27.7033   38.5136 C   0  0  2  0  0  0  0  0  0  0  0  0
   23.8582   27.6908   38.9100 N   0  0  0  0  0  0  0  0  0  0  0  0
   23.9265   30.5576   37.7601 C   0  0  2  0  0  0  0  0  0  0  0  0
   16.7819   27.6545   34.9841 C   0  0  2  0  0  0  0  0  0  0  0  0
   16.2666   28.5420   36.0390 N   0  0  0  0  0  0  0  0  0  0  0  0
   22.0775   26.2640   38.0003 C   0  0  0  0  0  0  0  0  0  0  0  0
   24.0192   31.7818   38.7541 C   0  0  2  0  0  0  0  0  0  0  0  0
   23.7591   31.3588   40.0815 O   0  0  0  0  0  0  0  0  0  0  0  0
   16.2797   26.1977   35.2175 C   0  0  1  0  0  0  0  0  0  0  0  0
   14.8411   26.1633   35.2569 O   0  0  0  0  0  0  0  0  0  0  0  0
   20.5615   26.2733   37.5954 C   0  0  2  0  0  0  0  0  0  0  0  0
   20.1440   24.9342   37.0905 N   0  0  0  0  0  0  0  0  0  0  0  0
   22.9599   32.8588   38.3067 C   0  0  1  0  0  0  0  0  0  0  0  0
   22.9702   34.0185   39.2209 N   0  0  0  0  0  0  0  0  0  0  0  0
   16.8408   25.3017   34.0885 C   0  0  2  0  0  0  0  0  0  0  0  0
   16.3808   23.9598   34.2774 O   0  0  0  0  0  0  0  0  0  0  0  0
   20.2896   27.3352   36.4873 C   0  0  2  0  0  0  0  0  0  0  0  0
   23.2817   33.3134   36.8479 C   0  0  1  0  0  0  0  0  0  0  0  0
   24.5737   33.9118   36.8380 O   0  0  0  0  0  0  0  0  0  0  0  0
   18.4278   25.3838   34.1115 C   0  0  2  0  0  0  0  0  0  0  0  0
   18.8826   26.7797   33.9251 O   0  0  0  0  0  0  0  0  0  0  0  0
   20.7249   28.7335   37.0037 C   0  0  2  0  0  0  0  0  0  0  0  0
   20.4953   29.6797   35.9617 O   0  0  0  0  0  0  0  0  0  0  0  0
   23.2670   32.0608   35.9139 C   0  0  0  0  0  0  0  0  0  0  0  0
   24.2130   31.0227   36.3888 O   0  0  0  0  0  0  0  0  0  0  0  0
   19.0891   24.5147   33.0034 C   0  0  2  0  0  0  0  0  0  0  0  0
   20.5133   24.6067   33.1188 O   0  0  0  0  0  0  0  0  0  0  0  0
   22.2317   28.7732   37.3591 C   0  0  1  0  0  0  0  0  0  0  0  0
   22.5377   30.1056   37.8550 O   0  0  0  0  0  0  0  0  0  0  0  0
   18.7060   24.9727   31.6134 C   0  0  0  0  0  0  0  0  0  0  0  0
   22.2816   34.3486   36.3313 C   0  0  0  0  0  0  0  0  0  0  0  0
   21.8315   33.8561   40.1577 C   0  0  0  0  0  0  0  0  0  0  0  0
  1  2  1  1  0  0  0
  1  6  1  0  0  0  0
  1 23  1  0  0  0  0
  3  4  1  6  0  0  0
  3  8  1  0  0  0  0
  3 30  1  0  0  0  0
  5  9  1  0  0  0  0
  5 27  1  0  0  0  0
  5 31  1  6  0  0  0
  6  7  1  1  0  0  0
  6 11  1  0  0  0  0
  8 13  1  0  0  0  0
  9 10  1  1  0  0  0
  9 15  1  0  0  0  0
 11 12  1  6  0  0  0
 11 17  1  0  0  0  0
 13 14  1  6  0  0  0
 13 19  1  0  0  0  0
 15 16  1  1  0  0  0
 15 20  1  0  0  0  0
 16 34  1  0  0  0  0
 17 18  1  1  0  0  0
 17 22  1  0  0  0  0
 19  2  1  1  0  0  0
 19 24  1  0  0  0  0
 20 21  1  6  0  0  0
 20 26  1  0  0  0  0
 20 33  1  0  0  0  0
 22 23  1  6  0  0  0
 22 28  1  0  0  0  0
 24 25  1  6  0  0  0
 24 30  1  0  0  0  0
 26 27  1  0  0  0  0
 28 29  1  6  0  0  0
 28 32  1  0  0  0  0
 30 31  1  1  0  0  0
M  END
>  <CHROM.1>
-174.40384432,-154.69403386,-100.02532216,-178.08163489,88.04189397,-162.75322843
20.66383620,28.70450817,36.39881174,2.28052505,0.44741354,-2.99777094

>  <Name>
ligand

>  <RI>
0

>  <Rbt.Current_Directory>
/home/itssahil/PROJECTS/Mol_Feturizer/New_Systems/rnas/4p3s

>  <Rbt.Executable>
rbdock ($Id: //depot/dev/client3/rdock/2013.1/src/exe/rbdock.cxx#4 $)

>  <Rbt.Library>
libRbt.so (2013.1, Build901 2013/11/27)

>  <Rbt.Parameter_File>
/export/apps/rDock/src/rDock_2013.1_src/data/scripts/dock_solv.prm

>  <Rbt.Receptor>
prm/pocket_docking_3.prm

>  <SCORE>
-18.4792

>  <SCORE.INTER>
-14.9551

>  <SCORE.INTER.CONST>
1

>  <SCORE.INTER.POLAR>
0

>  <SCORE.INTER.ROT>
6

>  <SCORE.INTER.SOLV>
21.3125

>  <SCORE.INTER.VDW>
-24.6743

>  <SCORE.INTER.norm>
-0.439856

>  <SCORE.INTRA>
-3.52409

>  <SCORE.INTRA.DIHEDRAL>
-7.37921

>  <SCORE.INTRA.DIHEDRAL.0>
15.8194

>  <SCORE.INTRA.POLAR>
0

>  <SCORE.INTRA.POLAR.0>
0

>  <SCORE.INTRA.REPUL>
0

>  <SCORE.INTRA.REPUL.0>
0

>  <SCORE.INTRA.SOLV>
0.221779

>  <SCORE.INTRA.SOLV.lig_0>
-71.9159

>  <SCORE.INTRA.VDW>
0.0546263

>  <SCORE.INTRA.VDW.0>
-3.53918

>  <SCORE.INTRA.norm>
-0.10365

>  <SCORE.RESTR>
0

>  <SCORE.RESTR.CAVITY>
0

>  <SCORE.RESTR.norm>
0

>  <SCORE.SYSTEM>
0

>  <SCORE.SYSTEM.CONST>
0

>  <SCORE.SYSTEM.DIHEDRAL>
0

>  <SCORE.SYSTEM.SOLV>
0

>  <SCORE.SYSTEM.norm>
0

>  <SCORE.heavy>
34

>  <SCORE.norm>
-0.543506

>  <RMSD>
0.926

$$$$
ligand
 OpenBabel01301917533D
libRbt.so/2013.1/901 2013/11/27
 34 36  0  0  0  0  0  0  0  0999 V2000
   18.1663   27.8431   34.9180 C   0  0  2  0  0  0  0  0  0  0  0  0
   18.7403   27.1652   36.0401 O   0  0  0  0  0  0  0  0  0  0  0  0
   22.3077   27.9624   38.2852 C   0  0  2  0  0  0  0  0  0  0  0  0
   23.7195   28.0481   38.6825 N   0  0  0  0  0  0  0  0  0  0  0  0
   22.6727   31.2234   36.3381 C   0  0  2  0  0  0  0  0  0  0  0  0
   16.6352   28.0654   35.2132 C   0  0  2  0  0  0  0  0  0  0  0  0
   16.4467   28.8564   36.4399 N   0  0  0  0  0  0  0  0  0  0  0  0
   22.0069   26.4672   37.9070 C   0  0  0  0  0  0  0  0  0  0  0  0
   23.5946   32.2967   37.0406 C   0  0  2  0  0  0  0  0  0  0  0  0
   24.7662   31.6822   37.5488 O   0  0  0  0  0  0  0  0  0  0  0  0
   15.9074   26.6934   35.3436 C   0  0  1  0  0  0  0  0  0  0  0  0
   14.5074   26.8920   35.6137 O   0  0  0  0  0  0  0  0  0  0  0  0
   20.4940   26.3730   37.5014 C   0  0  2  0  0  0  0  0  0  0  0  0
   20.1373   24.9760   37.1224 N   0  0  0  0  0  0  0  0  0  0  0  0
   22.7734   32.9585   38.2111 C   0  0  1  0  0  0  0  0  0  0  0  0
   23.5943   33.9501   38.9347 N   0  0  0  0  0  0  0  0  0  0  0  0
   16.1285   25.8979   34.0358 C   0  0  2  0  0  0  0  0  0  0  0  0
   15.4570   24.6376   34.1299 O   0  0  0  0  0  0  0  0  0  0  0  0
   20.1820   27.3150   36.2994 C   0  0  2  0  0  0  0  0  0  0  0  0
   21.4985   33.6372   37.6175 C   0  0  1  0  0  0  0  0  0  0  0  0
   21.9113   34.6582   36.7150 O   0  0  0  0  0  0  0  0  0  0  0  0
   17.6904   25.7118   33.8082 C   0  0  2  0  0  0  0  0  0  0  0  0
   18.3673   27.0252   33.7242 O   0  0  0  0  0  0  0  0  0  0  0  0
   20.5538   28.7727   36.6846 C   0  0  2  0  0  0  0  0  0  0  0  0
   20.2889   29.6075   35.5592 O   0  0  0  0  0  0  0  0  0  0  0  0
   20.6607   32.5598   36.8567 C   0  0  0  0  0  0  0  0  0  0  0  0
   21.4674   31.8907   35.8081 O   0  0  0  0  0  0  0  0  0  0  0  0
   18.0169   24.9227   32.5078 C   0  0  2  0  0  0  0  0  0  0  0  0
   17.3341   23.6645   32.5355 O   0  0  0  0  0  0  0  0  0  0  0  0
   22.0557   28.9107   37.0364 C   0  0  1  0  0  0  0  0  0  0  0  0
   22.3013   30.2952   37.4070 O   0  0  0  0  0  0  0  0  0  0  0  0
   19.4970   24.6438   32.3651 C   0  0  0  0  0  0  0  0  0  0  0  0
   20.6341   34.2881   38.6982 C   0  0  0  0  0  0  0  0  0  0  0  0
   23.6644   33.5193   40.3526 C   0  0  0  0  0  0  0  0  0  0  0  0
  1  2  1  1  0  0  0
  1  6  1  0  0  0  0
  1 23  1  0  0  0  0
  3  4  1  6  0  0  0
  3  8  1  0  0  0  0
  3 30  1  0  0  0  0
  5  9  1  0  0  0  0
  5 27  1  0  0  0  0
  5 31  1  1  0  0  0
  6  7  1  1  0  0  0
  6 11  1  0  0  0  0
  8 13  1  0  0  0  0
  9 10  1  1  0  0  0
  9 15  1  0  0  0  0
 11 12  1  6  0  0  0
 11 17  1  0  0  0  0
 13 14  1  6  0  0  0
 13 19  1  0  0  0  0
 15 16  1  6  0  0  0
 15 20  1  0  0  0  0
 16 34  1  0  0  0  0
 17 18  1  1  0  0  0
 17 22  1  0  0  0  0
 19  2  1  1  0  0  0
 19 24  1  0  0  0  0
 20 21  1  6  0  0  0
 20 26  1  0  0  0  0
 20 33  1  0  0  0  0
 22 23  1  6  0  0  0
 22 28  1  0  0  0  0
 24 25  1  6  0  0  0
 24 30  1  0  0  0  0
 26 27  1  0  0  0  0
 28 29  1  1  0  0  0
 28 32  1  0  0  0  0
 30 31  1  1  0  0  0
M  END
>  <CHROM.1>
-155.02280541,-175.59444735,-120.81635352,-55.33787675,154.89457495,-149.77338831
20.10880752,28.92984066,36.25091885,2.23562691,0.37778269,-2.92905000

>  <Name>
ligand

>  <RI>
0

>  <Rbt.Current_Directory>
/home/itssahil/PROJECTS/Mol_Feturizer/New_Systems/rnas/4p3s

>  <Rbt.Executable>
rbdock ($Id: //depot/dev/client3/rdock/2013.1/src/exe/rbdock.cxx#4 $)

>  <Rbt.Library>
libRbt.so (2013.1, Build901 2013/11/27)

>  <Rbt.Parameter_File>
/export/apps/rDock/src/rDock_2013.1_src/data/scripts/dock_solv.prm

>  <Rbt.Receptor>
prm/pocket_docking_3.prm

>  <SCORE>
-16.4056

>  <SCORE.INTER>
-13.6256

>  <SCORE.INTER.CONST>
1

>  <SCORE.INTER.POLAR>
0

>  <SCORE.INTER.ROT>
6

>  <SCORE.INTER.SOLV>
19.6514

>  <SCORE.INTER.VDW>
-23.2342

>  <SCORE.INTER.norm>
-0.400752

>  <SCORE.INTRA>
-2.78005

>  <SCORE.INTRA.DIHEDRAL>
-5.40445

>  <SCORE.INTRA.DIHEDRAL.0>
15.8194

>  <SCORE.INTRA.POLAR>
0

>  <SCORE.INTRA.POLAR.0>
0

>  <SCORE.INTRA.REPUL>
0

>  <SCORE.INTRA.REPUL.0>
0

>  <SCORE.INTRA.SOLV>
-1.12019

>  <SCORE.INTRA.SOLV.lig_0>
-71.9159

>  <SCORE.INTRA.VDW>
0.482264

>  <SCORE.INTRA.VDW.0>
-3.53918

>  <SCORE.INTRA.norm>
-0.0817663

>  <SCORE.RESTR>
0

>  <SCORE.RESTR.CAVITY>
0

>  <SCORE.RESTR.norm>
0

>  <SCORE.SYSTEM>
0

>  <SCORE.SYSTEM.CONST>
0

>  <SCORE.SYSTEM.DIHEDRAL>
0

>  <SCORE.SYSTEM.SOLV>
0

>  <SCORE.SYSTEM.norm>
0

>  <SCORE.heavy>
34

>  <SCORE.norm>
-0.482519

>  <RMSD>
0.930

$$$$
ligand
 OpenBabel01301917533D
libRbt.so/2013.1/901 2013/11/27
 34 36  0  0  0  0  0  0  0  0999 V2000
   18.5698   27.8533   34.6082 C   0  0  2  0  0  0  0  0  0  0  0  0
   18.9889   27.4119   35.9035 O   0  0  0  0  0  0  0  0  0  0  0  0
   22.5134   27.9492   38.2892 C   0  0  2  0  0  0  0  0  0  0  0  0
   23.9068   27.9094   38.7534 N   0  0  0  0  0  0  0  0  0  0  0  0
   24.1457   30.6547   36.9590 C   0  0  2  0  0  0  0  0  0  0  0  0
   17.0010   27.7324   34.5356 C   0  0  2  0  0  0  0  0  0  0  0  0
   16.3629   28.5446   35.5840 N   0  0  0  0  0  0  0  0  0  0  0  0
   22.0754   26.4759   37.9627 C   0  0  0  0  0  0  0  0  0  0  0  0
   24.5233   31.7263   38.0566 C   0  0  2  0  0  0  0  0  0  0  0  0
   24.5448   31.1284   39.3413 O   0  0  0  0  0  0  0  0  0  0  0  0
   16.5690   26.2416   34.6758 C   0  0  1  0  0  0  0  0  0  0  0  0
   15.1355   26.1265   34.6101 O   0  0  0  0  0  0  0  0  0  0  0  0
   20.5811   26.5173   37.4855 C   0  0  2  0  0  0  0  0  0  0  0  0
   20.0980   25.1472   37.1510 N   0  0  0  0  0  0  0  0  0  0  0  0
   23.4493   32.8780   38.0082 C   0  0  1  0  0  0  0  0  0  0  0  0
   23.7254   33.8987   39.0391 N   0  0  0  0  0  0  0  0  0  0  0  0
   17.2583   25.4267   33.5565 C   0  0  2  0  0  0  0  0  0  0  0  0
   16.8647   24.0547   33.6599 O   0  0  0  0  0  0  0  0  0  0  0  0
   20.4250   27.4259   36.2288 C   0  0  2  0  0  0  0  0  0  0  0  0
   23.4601   33.5241   36.5867 C   0  0  1  0  0  0  0  0  0  0  0  0
   24.7469   34.0896   36.3594 O   0  0  0  0  0  0  0  0  0  0  0  0
   18.8325   25.5949   33.6968 C   0  0  2  0  0  0  0  0  0  0  0  0
   19.2175   27.0203   33.5977 O   0  0  0  0  0  0  0  0  0  0  0  0
   20.9292   28.8551   36.5674 C   0  0  2  0  0  0  0  0  0  0  0  0
   20.8050   29.6562   35.3942 O   0  0  0  0  0  0  0  0  0  0  0  0
   23.1704   32.4144   35.5255 C   0  0  0  0  0  0  0  0  0  0  0  0
   24.1423   31.2999   35.6314 O   0  0  0  0  0  0  0  0  0  0  0  0
   19.6186   24.8114   32.6066 C   0  0  2  0  0  0  0  0  0  0  0  0
   18.9902   25.0124   31.3359 O   0  0  0  0  0  0  0  0  0  0  0  0
   22.4195   28.8557   36.9885 C   0  0  1  0  0  0  0  0  0  0  0  0
   22.7915   30.2244   37.3095 O   0  0  0  0  0  0  0  0  0  0  0  0
   19.6459   23.3237   32.8801 C   0  0  0  0  0  0  0  0  0  0  0  0
   22.4260   34.6427   36.4524 C   0  0  0  0  0  0  0  0  0  0  0  0
   23.1736   33.3960   40.3212 C   0  0  0  0  0  0  0  0  0  0  0  0
  1  2  1  1  0  0  0
  1  6  1  0  0  0  0
  1 23  1  0  0  0  0
  3  4  1  6  0  0  0
  3  8  1  0  0  0  0
  3 30  1  0  0  0  0
  5  9  1  0  0  0  0
  5 27  1  0  0  0  0
  5 31  1  1  0  0  0
  6  7  1  1  0  0  0
  6 11  1  0  0  0  0
  8 13  1  0  0  0  0
  9 10  1  1  0  0  0
  9 15  1  0  0  0  0
 11 12  1  6  0  0  0
 11 17  1  0  0  0  0
 13 14  1  6  0  0  0
 13 19  1  0  0  0  0
 15 16  1  1  0  0  0
 15 20  1  0  0  0  0
 16 34  1  0  0  0  0
 17 18  1  1  0  0  0
 17 22  1  0  0  0  0
 19  2  1  1  0  0  0
 19 24  1  0  0  0  0
 20 21  1  6  0  0  0
 20 26  1  0  0  0  0
 20 33  1  0  0  0  0
 22 23  1  6  0  0  0
 22 28  1  0  0  0  0
 24 25  1  6  0  0  0
 24 30  1  0  0  0  0
 26 27  1  0  0  0  0
 28 29  1  6  0  0  0
 28 32  1  0  0  0  0
 30 31  1  1  0  0  0
M  END
>  <CHROM.1>
179.97558093,-163.47976648,-81.78061914,44.14934137,100.50468701,-149.00257338
20.91003404,28.76489036,36.02458705,2.43050911,0.67130736,3.02368626

>  <Name>
ligand

>  <RI>
0

>  <Rbt.Current_Directory>
/home/itssahil/PROJECTS/Mol_Feturizer/New_Systems/rnas/4p3s

>  <Rbt.Executable>
rbdock ($Id: //depot/dev/client3/rdock/2013.1/src/exe/rbdock.cxx#4 $)

>  <Rbt.Library>
libRbt.so (2013.1, Build901 2013/11/27)

>  <Rbt.Parameter_File>
/export/apps/rDock/src/rDock_2013.1_src/data/scripts/dock_solv.prm

>  <Rbt.Receptor>
prm/blind_docking_80.prm

>  <SCORE>
-13.6308

>  <SCORE.INTER>
-15.3204

>  <SCORE.INTER.CONST>
1

>  <SCORE.INTER.POLAR>
0

>  <SCORE.INTER.ROT>
6

>  <SCORE.INTER.SOLV>
23.216

>  <SCORE.INTER.VDW>
-25.5523

>  <SCORE.INTER.norm>
-0.450601

>  <SCORE.INTRA>
-0.883554

>  <SCORE.INTRA.DIHEDRAL>
-4.10105

>  <SCORE.INTRA.DIHEDRAL.0>
15.8194

>  <SCORE.INTRA.POLAR>
0

>  <SCORE.INTRA.POLAR.0>
0

>  <SCORE.INTRA.REPUL>
0

>  <SCORE.INTRA.REPUL.0>
0

>  <SCORE.INTRA.SOLV>
0.266575

>  <SCORE.INTRA.SOLV.lig_0>
-71.9159

>  <SCORE.INTRA.VDW>
1.03368

>  <SCORE.INTRA.VDW.0>
-3.53918

>  <SCORE.INTRA.norm>
-0.0259869

>  <SCORE.RESTR>
2.57316

>  <SCORE.RESTR.CAVITY>
2.57316

>  <SCORE.RESTR.norm>
0.0756812

>  <SCORE.SYSTEM>
0

>  <SCORE.SYSTEM.CONST>
0

>  <SCORE.SYSTEM.DIHEDRAL>
0

>  <SCORE.SYSTEM.SOLV>
0

>  <SCORE.SYSTEM.norm>
0

>  <SCORE.heavy>
34

>  <SCORE.norm>
-0.400906

>  <RMSD>
0.934

$$$$
ligand
 OpenBabel01301917533D
libRbt.so/2013.1/901 2013/11/27
 34 36  0  0  0  0  0  0  0  0999 V2000
   18.2725   28.2009   35.1332 C   0  0  2  0  0  0  0  0  0  0  0  0
   18.7997   27.5223   36.2776 O   0  0  0  0  0  0  0  0  0  0  0  0
   22.5147   27.6378   38.4194 C   0  0  2  0  0  0  0  0  0  0  0  0
   23.9425   27.5298   38.7488 N   0  0  0  0  0  0  0  0  0  0  0  0
   24.1007   30.4794   37.6906 C   0  0  2  0  0  0  0  0  0  0  0  0
   16.7467   28.4893   35.3969 C   0  0  2  0  0  0  0  0  0  0  0  0
   16.5690   29.3103   36.6054 N   0  0  0  0  0  0  0  0  0  0  0  0
   22.0491   26.2501   37.8478 C   0  0  0  0  0  0  0  0  0  0  0  0
   24.3064   31.6804   38.6959 C   0  0  2  0  0  0  0  0  0  0  0  0
   24.1376   31.2384   40.0319 O   0  0  0  0  0  0  0  0  0  0  0  0
   15.9625   27.1500   35.5394 C   0  0  1  0  0  0  0  0  0  0  0  0
   14.5672   27.4090   35.7808 O   0  0  0  0  0  0  0  0  0  0  0  0
   20.5198   26.3605   37.5145 C   0  0  2  0  0  0  0  0  0  0  0  0
   20.0086   25.0750   36.9591 N   0  0  0  0  0  0  0  0  0  0  0  0
   23.2478   32.7954   38.3518 C   0  0  1  0  0  0  0  0  0  0  0  0
   23.3632   33.9360   39.2828 N   0  0  0  0  0  0  0  0  0  0  0  0
   16.1740   26.3216   34.2506 C   0  0  2  0  0  0  0  0  0  0  0  0
   15.4511   25.0909   34.3559 O   0  0  0  0  0  0  0  0  0  0  0  0
   20.2582   27.4949   36.4781 C   0  0  2  0  0  0  0  0  0  0  0  0
   23.4688   33.2699   36.8806 C   0  0  1  0  0  0  0  0  0  0  0  0
   24.7732   33.8318   36.7804 O   0  0  0  0  0  0  0  0  0  0  0  0
   17.7309   26.0695   34.0544 C   0  0  2  0  0  0  0  0  0  0  0  0
   18.4610   27.3531   33.9583 O   0  0  0  0  0  0  0  0  0  0  0  0
   20.7908   28.8380   37.0475 C   0  0  2  0  0  0  0  0  0  0  0  0
   20.5681   29.8512   36.0689 O   0  0  0  0  0  0  0  0  0  0  0  0
   23.3446   32.0371   35.9286 C   0  0  0  0  0  0  0  0  0  0  0  0
   24.2935   30.9636   36.3096 O   0  0  0  0  0  0  0  0  0  0  0  0
   18.0478   25.2434   32.7747 C   0  0  2  0  0  0  0  0  0  0  0  0
   17.2460   24.0571   32.7684 O   0  0  0  0  0  0  0  0  0  0  0  0
   22.3115   28.7796   37.3345 C   0  0  1  0  0  0  0  0  0  0  0  0
   22.7107   30.0647   37.8857 O   0  0  0  0  0  0  0  0  0  0  0  0
   19.4994   24.8221   32.7115 C   0  0  0  0  0  0  0  0  0  0  0  0
   22.4625   34.3428   36.4621 C   0  0  0  0  0  0  0  0  0  0  0  0
   22.3544   33.7402   40.3527 C   0  0  0  0  0  0  0  0  0  0  0  0
  1  2  1  1  0  0  0
  1  6  1  0  0  0  0
  1 23  1  0  0  0  0
  3  4  1  6  0  0  0
  3  8  1  0  0  0  0
  3 30  1  0  0  0  0
  5  9  1  0  0  0  0
  5 27  1  0  0  0  0
  5 31  1  6  0  0  0
  6  7  1  1  0  0  0
  6 11  1  0  0  0  0
  8 13  1  0  0  0  0
  9 10  1  1  0  0  0
  9 15  1  0  0  0  0
 11 12  1  6  0  0  0
 11 17  1  0  0  0  0
 13 14  1  6  0  0  0
 13 19  1  0  0  0  0
 15 16  1  1  0  0  0
 15 20  1  0  0  0  0
 16 34  1  0  0  0  0
 17 18  1  1  0  0  0
 17 22  1  0  0  0  0
 19  2  1  1  0  0  0
 19 24  1  0  0  0  0
 20 21  1  6  0  0  0
 20 26  1  0  0  0  0
 20 33  1  0  0  0  0
 22 23  1  6  0  0  0
 22 28  1  0  0  0  0
 24 25  1  6  0  0  0
 24 30  1  0  0  0  0
 26 27  1  0  0  0  0
 28 29  1  1  0  0  0
 28 32  1  0  0  0  0
 30 31  1  1  0  0  0
M  END
>  <CHROM.1>
-161.69401914,-163.42541785,-96.39406306,-51.40388473,91.10770716,-165.67613627
20.54927576,28.92545698,36.47422474,2.37686222,0.38721778,-2.98719510

>  <Name>
ligand

>  <RI>
0

>  <Rbt.Current_Directory>
/home/itssahil/PROJECTS/Mol_Feturizer/New_Systems/rnas/4p3s

>  <Rbt.Executable>
rbdock ($Id: //depot/dev/client3/rdock/2013.1/src/exe/rbdock.cxx#4 $)

>  <Rbt.Library>
libRbt.so (2013.1, Build901 2013/11/27)

>  <Rbt.Parameter_File>
/export/apps/rDock/src/rDock_2013.1_src/data/scripts/dock_solv.prm

>  <Rbt.Receptor>
prm/pocket_docking_4.prm

>  <SCORE>
-19.1037

>  <SCORE.INTER>
-15.5194

>  <SCORE.INTER.CONST>
1

>  <SCORE.INTER.POLAR>
0

>  <SCORE.INTER.ROT>
6

>  <SCORE.INTER.SOLV>
20.0329

>  <SCORE.INTER.VDW>
-24.6239

>  <SCORE.INTER.norm>
-0.456454

>  <SCORE.INTRA>
-3.58427

>  <SCORE.INTRA.DIHEDRAL>
-7.12707

>  <SCORE.INTRA.DIHEDRAL.0>
15.8194

>  <SCORE.INTRA.POLAR>
0

>  <SCORE.INTRA.POLAR.0>
0

>  <SCORE.INTRA.REPUL>
0

>  <SCORE.INTRA.REPUL.0>
0

>  <SCORE.INTRA.SOLV>
0.110056

>  <SCORE.INTRA.SOLV.lig_0>
-71.9159

>  <SCORE.INTRA.VDW>
-0.0757565

>  <SCORE.INTRA.VDW.0>
-3.53918

>  <SCORE.INTRA.norm>
-0.10542

>  <SCORE.RESTR>
0

>  <SCORE.RESTR.CAVITY>
0

>  <SCORE.RESTR.norm>
0

>  <SCORE.SYSTEM>
0

>  <SCORE.SYSTEM.CONST>
0

>  <SCORE.SYSTEM.DIHEDRAL>
0

>  <SCORE.SYSTEM.SOLV>
0

>  <SCORE.SYSTEM.norm>
0

>  <SCORE.heavy>
34

>  <SCORE.norm>
-0.561873

>  <RMSD>
0.936

$$$$
ligand
 OpenBabel01301917533D
libRbt.so/2013.1/901 2013/11/27
 34 36  0  0  0  0  0  0  0  0999 V2000
   18.2882   28.0515   35.2908 C   0  0  2  0  0  0  0  0  0  0  0  0
   18.8525   27.4021   36.4345 O   0  0  0  0  0  0  0  0  0  0  0  0
   22.5833   27.6707   38.5347 C   0  0  2  0  0  0  0  0  0  0  0  0
   24.0176   27.6183   38.8491 N   0  0  0  0  0  0  0  0  0  0  0  0
   24.0552   30.5631   37.7720 C   0  0  2  0  0  0  0  0  0  0  0  0
   16.7198   27.9581   35.4010 C   0  0  2  0  0  0  0  0  0  0  0  0
   16.2417   28.5950   36.6386 N   0  0  0  0  0  0  0  0  0  0  0  0
   22.1637   26.2627   37.9775 C   0  0  0  0  0  0  0  0  0  0  0  0
   24.2137   31.8018   38.7394 C   0  0  2  0  0  0  0  0  0  0  0  0
   24.0641   31.3948   40.0887 O   0  0  0  0  0  0  0  0  0  0  0  0
   16.2648   26.4682   35.3553 C   0  0  1  0  0  0  0  0  0  0  0  0
   14.8316   26.3781   35.4559 O   0  0  0  0  0  0  0  0  0  0  0  0
   20.6278   26.3139   37.6602 C   0  0  2  0  0  0  0  0  0  0  0  0
   20.1590   25.0063   37.1190 N   0  0  0  0  0  0  0  0  0  0  0  0
   23.1111   32.8625   38.3635 C   0  0  1  0  0  0  0  0  0  0  0  0
   23.1818   34.0349   39.2587 N   0  0  0  0  0  0  0  0  0  0  0  0
   16.7848   25.8395   34.0413 C   0  0  2  0  0  0  0  0  0  0  0  0
   16.3669   24.4725   33.9736 O   0  0  0  0  0  0  0  0  0  0  0  0
   20.3131   27.4304   36.6193 C   0  0  2  0  0  0  0  0  0  0  0  0
   23.3115   33.2998   36.8779 C   0  0  1  0  0  0  0  0  0  0  0  0
   24.5923   33.9100   36.7575 O   0  0  0  0  0  0  0  0  0  0  0  0
   18.3685   25.9686   34.0042 C   0  0  2  0  0  0  0  0  0  0  0  0
   18.7800   27.3878   34.0858 O   0  0  0  0  0  0  0  0  0  0  0  0
   20.8013   28.7963   37.1738 C   0  0  2  0  0  0  0  0  0  0  0  0
   20.5305   29.7936   36.1911 O   0  0  0  0  0  0  0  0  0  0  0  0
   23.2358   32.0343   35.9645 C   0  0  0  0  0  0  0  0  0  0  0  0
   24.2272   31.0118   36.3763 O   0  0  0  0  0  0  0  0  0  0  0  0
   18.9890   25.3654   32.7114 C   0  0  2  0  0  0  0  0  0  0  0  0
   18.2449   25.8187   31.5751 O   0  0  0  0  0  0  0  0  0  0  0  0
   22.3261   28.7966   37.4445 C   0  0  1  0  0  0  0  0  0  0  0  0
   22.6831   30.0995   37.9828 O   0  0  0  0  0  0  0  0  0  0  0  0
   18.9561   23.8530   32.7138 C   0  0  0  0  0  0  0  0  0  0  0  0
   22.2628   34.3183   36.4288 C   0  0  0  0  0  0  0  0  0  0  0  0
   22.1598   33.8479   40.3175 C   0  0  0  0  0  0  0  0  0  0  0  0
  1  2  1  1  0  0  0
  1  6  1  0  0  0  0
  1 23  1  0  0  0  0
  3  4  1  6  0  0  0
  3  8  1  0  0  0  0
  3 30  1  0  0  0  0
  5  9  1  0  0  0  0
  5 27  1  0  0  0  0
  5 31  1  6  0  0  0
  6  7  1  1  0  0  0
  6 11  1  0  0  0  0
  8 13  1  0  0  0  0
  9 10  1  1  0  0  0
  9 15  1  0  0  0  0
 11 12  1  6  0  0  0
 11 17  1  0  0  0  0
 13 14  1  6  0  0  0
 13 19  1  0  0  0  0
 15 16  1  1  0  0  0
 15 20  1  0  0  0  0
 16 34  1  0  0  0  0
 17 18  1  1  0  0  0
 17 22  1  0  0  0  0
 19  2  1  1  0  0  0
 19 24  1  0  0  0  0
 20 21  1  6  0  0  0
 20 26  1  0  0  0  0
 20 33  1  0  0  0  0
 22 23  1  6  0  0  0
 22 28  1  0  0  0  0
 24 25  1  6  0  0  0
 24 30  1  0  0  0  0
 26 27  1  0  0  0  0
 28 29  1  6  0  0  0
 28 32  1  0  0  0  0
 30 31  1  1  0  0  0
M  END
>  <CHROM.1>
-175.87262321,-163.36667814,-97.74865787,46.42817159,90.99350348,-167.10057154
20.64613040,28.84658651,36.45337719,2.38482206,0.54677725,-3.11039742

>  <Name>
ligand

>  <RI>
0

>  <Rbt.Current_Directory>
/home/itssahil/PROJECTS/Mol_Feturizer/New_Systems/rnas/4p3s

>  <Rbt.Executable>
rbdock ($Id: //depot/dev/client3/rdock/2013.1/src/exe/rbdock.cxx#4 $)

>  <Rbt.Library>
libRbt.so (2013.1, Build901 2013/11/27)

>  <Rbt.Parameter_File>
/export/apps/rDock/src/rDock_2013.1_src/data/scripts/dock_solv.prm

>  <Rbt.Receptor>
prm/pocket_docking_3.prm

>  <SCORE>
-19.1072

>  <SCORE.INTER>
-14.8291

>  <SCORE.INTER.CONST>
1

>  <SCORE.INTER.POLAR>
0

>  <SCORE.INTER.ROT>
6

>  <SCORE.INTER.SOLV>
21.0539

>  <SCORE.INTER.VDW>
-24.504

>  <SCORE.INTER.norm>
-0.436151

>  <SCORE.INTRA>
-4.27807

>  <SCORE.INTRA.DIHEDRAL>
-8.3732

>  <SCORE.INTRA.DIHEDRAL.0>
15.8194

>  <SCORE.INTRA.POLAR>
0

>  <SCORE.INTRA.POLAR.0>
0

>  <SCORE.INTRA.REPUL>
0

>  <SCORE.INTRA.REPUL.0>
0

>  <SCORE.INTRA.SOLV>
-0.343669

>  <SCORE.INTRA.SOLV.lig_0>
-71.9159

>  <SCORE.INTRA.VDW>
0.0803673

>  <SCORE.INTRA.VDW.0>
-3.53918

>  <SCORE.INTRA.norm>
-0.125825

>  <SCORE.RESTR>
0

>  <SCORE.RESTR.CAVITY>
0

>  <SCORE.RESTR.norm>
0

>  <SCORE.SYSTEM>
0

>  <SCORE.SYSTEM.CONST>
0

>  <SCORE.SYSTEM.DIHEDRAL>
0

>  <SCORE.SYSTEM.SOLV>
0

>  <SCORE.SYSTEM.norm>
0

>  <SCORE.heavy>
34

>  <SCORE.norm>
-0.561976

>  <RMSD>
0.938

$$$$
ligand
 OpenBabel01301917533D
libRbt.so/2013.1/901 2013/11/27
 34 36  0  0  0  0  0  0  0  0999 V2000
   18.2549   28.1374   35.0665 C   0  0  2  0  0  0  0  0  0  0  0  0
   18.7817   27.4420   36.2010 O   0  0  0  0  0  0  0  0  0  0  0  0
   22.4595   27.6640   38.3980 C   0  0  2  0  0  0  0  0  0  0  0  0
   23.8838   27.5894   38.7511 N   0  0  0  0  0  0  0  0  0  0  0  0
   24.0154   30.4979   37.7050 C   0  0  2  0  0  0  0  0  0  0  0  0
   16.7299   28.4251   35.3354 C   0  0  2  0  0  0  0  0  0  0  0  0
   16.5547   29.2296   36.5552 N   0  0  0  0  0  0  0  0  0  0  0  0
   22.0302   26.2587   37.8411 C   0  0  0  0  0  0  0  0  0  0  0  0
   24.1727   31.6969   38.7213 C   0  0  2  0  0  0  0  0  0  0  0  0
   23.9362   31.2532   40.0464 O   0  0  0  0  0  0  0  0  0  0  0  0
   15.9433   27.0854   35.4600 C   0  0  1  0  0  0  0  0  0  0  0  0
   14.5486   27.3437   35.7061 O   0  0  0  0  0  0  0  0  0  0  0  0
   20.5045   26.3337   37.4825 C   0  0  2  0  0  0  0  0  0  0  0  0
   20.0273   25.0299   36.9395 N   0  0  0  0  0  0  0  0  0  0  0  0
   23.1350   32.8147   38.3263 C   0  0  1  0  0  0  0  0  0  0  0  0
   23.2060   33.9535   39.2638 N   0  0  0  0  0  0  0  0  0  0  0  0
   16.1522   26.2744   34.1598 C   0  0  2  0  0  0  0  0  0  0  0  0
   15.4271   25.0438   34.2486 O   0  0  0  0  0  0  0  0  0  0  0  0
   20.2372   27.4467   36.4246 C   0  0  2  0  0  0  0  0  0  0  0  0
   23.4306   33.2909   36.8688 C   0  0  1  0  0  0  0  0  0  0  0  0
   24.7396   33.8502   36.8352 O   0  0  0  0  0  0  0  0  0  0  0  0
   17.7085   26.0220   33.9589 C   0  0  2  0  0  0  0  0  0  0  0  0
   18.4410   27.3055   33.8800 O   0  0  0  0  0  0  0  0  0  0  0  0
   20.7344   28.8085   36.9809 C   0  0  2  0  0  0  0  0  0  0  0  0
   20.5073   29.8020   35.9832 O   0  0  0  0  0  0  0  0  0  0  0  0
   23.3519   32.0599   35.9097 C   0  0  0  0  0  0  0  0  0  0  0  0
   24.2783   30.9837   36.3362 O   0  0  0  0  0  0  0  0  0  0  0  0
   18.0228   25.2131   32.6677 C   0  0  2  0  0  0  0  0  0  0  0  0
   17.2341   24.0182   32.6559 O   0  0  0  0  0  0  0  0  0  0  0  0
   22.2512   28.7848   37.2922 C   0  0  1  0  0  0  0  0  0  0  0  0
   22.6165   30.0858   37.8294 O   0  0  0  0  0  0  0  0  0  0  0  0
   19.4783   24.8086   32.5871 C   0  0  0  0  0  0  0  0  0  0  0  0
   22.4489   34.3666   36.4021 C   0  0  0  0  0  0  0  0  0  0  0  0
   22.1368   33.7642   40.2746 C   0  0  0  0  0  0  0  0  0  0  0  0
  1  2  1  1  0  0  0
  1  6  1  0  0  0  0
  1 23  1  0  0  0  0
  3  4  1  6  0  0  0
  3  8  1  0  0  0  0
  3 30  1  0  0  0  0
  5  9  1  0  0  0  0
  5 27  1  0  0  0  0
  5 31  1  6  0  0  0
  6  7  1  1  0  0  0
  6 11  1  0  0  0  0
  8 13  1  0  0  0  0
  9 10  1  1  0  0  0
  9 15  1  0  0  0  0
 11 12  1  6  0  0  0
 11 17  1  0  0  0  0
 13 14  1  6  0  0  0
 13 19  1  0  0  0  0
 15 16  1  1  0  0  0
 15 20  1  0  0  0  0
 16 34  1  0  0  0  0
 17 18  1  1  0  0  0
 17 22  1  0  0  0  0
 19  2  1  1  0  0  0
 19 24  1  0  0  0  0
 20 21  1  6  0  0  0
 20 26  1  0  0  0  0
 20 33  1  0  0  0  0
 22 23  1  6  0  0  0
 22 28  1  0  0  0  0
 24 25  1  6  0  0  0
 24 30  1  0  0  0  0
 26 27  1  0  0  0  0
 28 29  1  1  0  0  0
 28 32  1  0  0  0  0
 30 31  1  1  0  0  0
M  END
>  <CHROM.1>
-159.70066984,-165.86629898,-96.86567581,-52.29798451,88.30362374,-163.87282456
20.49970309,28.90907530,36.42719579,2.36487166,0.39458457,-2.98125372

>  <Name>
ligand

>  <RI>
0

>  <Rbt.Current_Directory>
/home/itssahil/PROJECTS/Mol_Feturizer/New_Systems/rnas/4p3s

>  <Rbt.Executable>
rbdock ($Id: //depot/dev/client3/rdock/2013.1/src/exe/rbdock.cxx#4 $)

>  <Rbt.Library>
libRbt.so (2013.1, Build901 2013/11/27)

>  <Rbt.Parameter_File>
/export/apps/rDock/src/rDock_2013.1_src/data/scripts/dock_solv.prm

>  <Rbt.Receptor>
prm/pocket_docking_5.prm

>  <SCORE>
-19.2284

>  <SCORE.INTER>
-15.5699

>  <SCORE.INTER.CONST>
1

>  <SCORE.INTER.POLAR>
0

>  <SCORE.INTER.ROT>
6

>  <SCORE.INTER.SOLV>
20.1704

>  <SCORE.INTER.VDW>
-24.7034

>  <SCORE.INTER.norm>
-0.457939

>  <SCORE.INTRA>
-3.65845

>  <SCORE.INTRA.DIHEDRAL>
-7.45583

>  <SCORE.INTRA.DIHEDRAL.0>
15.8194

>  <SCORE.INTRA.POLAR>
0

>  <SCORE.INTRA.POLAR.0>
0

>  <SCORE.INTRA.REPUL>
0

>  <SCORE.INTRA.REPUL.0>
0

>  <SCORE.INTRA.SOLV>
0.100035

>  <SCORE.INTRA.SOLV.lig_0>
-71.9159

>  <SCORE.INTRA.VDW>
0.0194496

>  <SCORE.INTRA.VDW.0>
-3.53918

>  <SCORE.INTRA.norm>
-0.107601

>  <SCORE.RESTR>
0

>  <SCORE.RESTR.CAVITY>
0

>  <SCORE.RESTR.norm>
0

>  <SCORE.SYSTEM>
0

>  <SCORE.SYSTEM.CONST>
0

>  <SCORE.SYSTEM.DIHEDRAL>
0

>  <SCORE.SYSTEM.SOLV>
0

>  <SCORE.SYSTEM.norm>
0

>  <SCORE.heavy>
34

>  <SCORE.norm>
-0.565541

>  <RMSD>
0.940

$$$$
ligand
 OpenBabel01301917533D
libRbt.so/2013.1/901 2013/11/27
 34 36  0  0  0  0  0  0  0  0999 V2000
   18.1606   27.9024   34.8113 C   0  0  2  0  0  0  0  0  0  0  0  0
   18.7083   27.2398   35.9555 O   0  0  0  0  0  0  0  0  0  0  0  0
   22.2847   27.9455   38.2167 C   0  0  2  0  0  0  0  0  0  0  0  0
   23.6968   27.9975   38.6193 N   0  0  0  0  0  0  0  0  0  0  0  0
   22.6940   31.2156   36.2818 C   0  0  2  0  0  0  0  0  0  0  0  0
   16.6278   28.1483   35.0770 C   0  0  2  0  0  0  0  0  0  0  0  0
   16.4289   28.9651   36.2850 N   0  0  0  0  0  0  0  0  0  0  0  0
   21.9517   26.4593   37.8301 C   0  0  0  0  0  0  0  0  0  0  0  0
   23.6072   32.2965   36.9839 C   0  0  2  0  0  0  0  0  0  0  0  0
   24.7858   31.6924   37.4884 O   0  0  0  0  0  0  0  0  0  0  0  0
   15.8816   26.7877   35.2218 C   0  0  1  0  0  0  0  0  0  0  0  0
   14.4799   27.0078   35.4651 O   0  0  0  0  0  0  0  0  0  0  0  0
   20.4385   26.4012   37.4189 C   0  0  2  0  0  0  0  0  0  0  0  0
   20.0518   25.0145   37.0317 N   0  0  0  0  0  0  0  0  0  0  0  0
   22.7825   32.9485   38.1574 C   0  0  1  0  0  0  0  0  0  0  0  0
   23.5955   33.9468   38.8807 N   0  0  0  0  0  0  0  0  0  0  0  0
   16.1142   25.9643   33.9335 C   0  0  2  0  0  0  0  0  0  0  0  0
   15.4262   24.7140   34.0409 O   0  0  0  0  0  0  0  0  0  0  0  0
   20.1521   27.3558   36.2205 C   0  0  2  0  0  0  0  0  0  0  0  0
   21.4998   33.6160   37.5678 C   0  0  1  0  0  0  0  0  0  0  0  0
   21.9008   34.6423   36.6660 O   0  0  0  0  0  0  0  0  0  0  0  0
   17.6773   25.7556   33.7352 C   0  0  2  0  0  0  0  0  0  0  0  0
   18.3711   27.0591   33.6369 O   0  0  0  0  0  0  0  0  0  0  0  0
   20.5552   28.8029   36.6141 C   0  0  2  0  0  0  0  0  0  0  0  0
   20.3131   29.6490   35.4920 O   0  0  0  0  0  0  0  0  0  0  0  0
   20.6706   32.5319   36.8072 C   0  0  0  0  0  0  0  0  0  0  0  0
   21.4812   31.8722   35.7556 O   0  0  0  0  0  0  0  0  0  0  0  0
   18.0153   24.9375   32.4558 C   0  0  2  0  0  0  0  0  0  0  0  0
   17.2977   23.6989   32.4845 O   0  0  0  0  0  0  0  0  0  0  0  0
   22.0585   28.9053   36.9717 C   0  0  1  0  0  0  0  0  0  0  0  0
   22.3340   30.2822   37.3500 O   0  0  0  0  0  0  0  0  0  0  0  0
   19.4903   24.6165   32.3560 C   0  0  0  0  0  0  0  0  0  0  0  0
   20.6317   34.2569   38.6516 C   0  0  0  0  0  0  0  0  0  0  0  0
   23.6301   33.5421   40.3076 C   0  0  0  0  0  0  0  0  0  0  0  0
  1  2  1  1  0  0  0
  1  6  1  0  0  0  0
  1 23  1  0  0  0  0
  3  4  1  6  0  0  0
  3  8  1  0  0  0  0
  3 30  1  0  0  0  0
  5  9  1  0  0  0  0
  5 27  1  0  0  0  0
  5 31  1  1  0  0  0
  6  7  1  1  0  0  0
  6 11  1  0  0  0  0
  8 13  1  0  0  0  0
  9 10  1  1  0  0  0
  9 15  1  0  0  0  0
 11 12  1  6  0  0  0
 11 17  1  0  0  0  0
 13 14  1  6  0  0  0
 13 19  1  0  0  0  0
 15 16  1  6  0  0  0
 15 20  1  0  0  0  0
 16 34  1  0  0  0  0
 17 18  1  1  0  0  0
 17 22  1  0  0  0  0
 19  2  1  1  0  0  0
 19 24  1  0  0  0  0
 20 21  1  6  0  0  0
 20 26  1  0  0  0  0
 20 33  1  0  0  0  0
 22 23  1  6  0  0  0
 22 28  1  0  0  0  0
 24 25  1  6  0  0  0
 24 30  1  0  0  0  0
 26 27  1  0  0  0  0
 28 29  1  1  0  0  0
 28 32  1  0  0  0  0
 30 31  1  1  0  0  0
M  END
>  <CHROM.1>
-156.22352869,-173.69385449,-122.92277248,-54.26925073,156.53940269,-151.70920744
20.09767009,28.95242722,36.17739906,2.24133693,0.38027980,-2.92624112

>  <Name>
ligand

>  <RI>
0

>  <Rbt.Current_Directory>
/home/itssahil/PROJECTS/Mol_Feturizer/New_Systems/rnas/4p3s

>  <Rbt.Executable>
rbdock ($Id: //depot/dev/client3/rdock/2013.1/src/exe/rbdock.cxx#4 $)

>  <Rbt.Library>
libRbt.so (2013.1, Build901 2013/11/27)

>  <Rbt.Parameter_File>
/export/apps/rDock/src/rDock_2013.1_src/data/scripts/dock_solv.prm

>  <Rbt.Receptor>
prm/pocket_docking_3.prm

>  <SCORE>
-16.317

>  <SCORE.INTER>
-13.3516

>  <SCORE.INTER.CONST>
1

>  <SCORE.INTER.POLAR>
0

>  <SCORE.INTER.ROT>
6

>  <SCORE.INTER.SOLV>
20.2056

>  <SCORE.INTER.VDW>
-23.2363

>  <SCORE.INTER.norm>
-0.392694

>  <SCORE.INTRA>
-2.9654

>  <SCORE.INTRA.DIHEDRAL>
-6.13853

>  <SCORE.INTRA.DIHEDRAL.0>
15.8194

>  <SCORE.INTRA.POLAR>
0

>  <SCORE.INTRA.POLAR.0>
0

>  <SCORE.INTRA.REPUL>
0

>  <SCORE.INTRA.REPUL.0>
0

>  <SCORE.INTRA.SOLV>
-1.11673

>  <SCORE.INTRA.SOLV.lig_0>
-71.9159

>  <SCORE.INTRA.VDW>
0.662234

>  <SCORE.INTRA.VDW.0>
-3.53918

>  <SCORE.INTRA.norm>
-0.0872176

>  <SCORE.RESTR>
0

>  <SCORE.RESTR.CAVITY>
0

>  <SCORE.RESTR.norm>
0

>  <SCORE.SYSTEM>
0

>  <SCORE.SYSTEM.CONST>
0

>  <SCORE.SYSTEM.DIHEDRAL>
0

>  <SCORE.SYSTEM.SOLV>
0

>  <SCORE.SYSTEM.norm>
0

>  <SCORE.heavy>
34

>  <SCORE.norm>
-0.479912

>  <RMSD>
0.941

$$$$
ligand
 OpenBabel01301917533D
libRbt.so/2013.1/901 2013/11/27
 34 36  0  0  0  0  0  0  0  0999 V2000
   18.2439   27.9994   35.1597 C   0  0  2  0  0  0  0  0  0  0  0  0
   18.7999   27.3687   36.3178 O   0  0  0  0  0  0  0  0  0  0  0  0
   22.5147   27.6434   38.4455 C   0  0  2  0  0  0  0  0  0  0  0  0
   23.9467   27.5946   38.7700 N   0  0  0  0  0  0  0  0  0  0  0  0
   23.9932   30.5253   37.7345 C   0  0  2  0  0  0  0  0  0  0  0  0
   16.6745   27.9162   35.2648 C   0  0  2  0  0  0  0  0  0  0  0  0
   16.1946   28.5788   36.4881 N   0  0  0  0  0  0  0  0  0  0  0  0
   22.1034   26.2356   37.8817 C   0  0  0  0  0  0  0  0  0  0  0  0
   24.1420   31.7390   38.7346 C   0  0  2  0  0  0  0  0  0  0  0  0
   23.9539   31.3025   40.0697 O   0  0  0  0  0  0  0  0  0  0  0  0
   16.2119   26.4281   35.2450 C   0  0  1  0  0  0  0  0  0  0  0  0
   14.7778   26.3474   35.3411 O   0  0  0  0  0  0  0  0  0  0  0  0
   20.5696   26.2828   37.5535 C   0  0  2  0  0  0  0  0  0  0  0  0
   20.1087   24.9752   37.0056 N   0  0  0  0  0  0  0  0  0  0  0  0
   23.0617   32.8218   38.3567 C   0  0  1  0  0  0  0  0  0  0  0  0
   23.1239   33.9720   39.2809 N   0  0  0  0  0  0  0  0  0  0  0  0
   16.7341   25.7722   33.9453 C   0  0  2  0  0  0  0  0  0  0  0  0
   16.3092   24.4063   33.9015 O   0  0  0  0  0  0  0  0  0  0  0  0
   20.2590   27.4010   36.5131 C   0  0  2  0  0  0  0  0  0  0  0  0
   23.3044   33.2911   36.8873 C   0  0  1  0  0  0  0  0  0  0  0  0
   24.5949   33.8881   36.8131 O   0  0  0  0  0  0  0  0  0  0  0  0
   18.3186   25.8924   33.9127 C   0  0  2  0  0  0  0  0  0  0  0  0
   18.7373   27.3106   33.9694 O   0  0  0  0  0  0  0  0  0  0  0  0
   20.7390   28.7670   37.0746 C   0  0  2  0  0  0  0  0  0  0  0  0
   20.4722   29.7659   36.0924 O   0  0  0  0  0  0  0  0  0  0  0  0
   23.2366   32.0483   35.9426 C   0  0  0  0  0  0  0  0  0  0  0  0
   24.2053   31.0043   36.3545 O   0  0  0  0  0  0  0  0  0  0  0  0
   18.9413   25.2618   32.6341 C   0  0  2  0  0  0  0  0  0  0  0  0
   18.1489   25.6210   31.4970 O   0  0  0  0  0  0  0  0  0  0  0  0
   22.2618   28.7713   37.3562 C   0  0  1  0  0  0  0  0  0  0  0  0
   22.6109   30.0739   37.9004 O   0  0  0  0  0  0  0  0  0  0  0  0
   18.9894   23.7515   32.7072 C   0  0  0  0  0  0  0  0  0  0  0  0
   22.2793   34.3327   36.4366 C   0  0  0  0  0  0  0  0  0  0  0  0
   22.0603   33.7830   40.2977 C   0  0  0  0  0  0  0  0  0  0  0  0
  1  2  1  1  0  0  0
  1  6  1  0  0  0  0
  1 23  1  0  0  0  0
  3  4  1  6  0  0  0
  3  8  1  0  0  0  0
  3 30  1  0  0  0  0
  5  9  1  0  0  0  0
  5 27  1  0  0  0  0
  5 31  1  6  0  0  0
  6  7  1  1  0  0  0
  6 11  1  0  0  0  0
  8 13  1  0  0  0  0
  9 10  1  1  0  0  0
  9 15  1  0  0  0  0
 11 12  1  6  0  0  0
 11 17  1  0  0  0  0
 13 14  1  6  0  0  0
 13 19  1  0  0  0  0
 15 16  1  1  0  0  0
 15 20  1  0  0  0  0
 16 34  1  0  0  0  0
 17 18  1  1  0  0  0
 17 22  1  0  0  0  0
 19  2  1  1  0  0  0
 19 24  1  0  0  0  0
 20 21  1  6  0  0  0
 20 26  1  0  0  0  0
 20 33  1  0  0  0  0
 22 23  1  6  0  0  0
 22 28  1  0  0  0  0
 24 25  1  6  0  0  0
 24 30  1  0  0  0  0
 26 27  1  0  0  0  0
 28 29  1  6  0  0  0
 28 32  1  0  0  0  0
 30 31  1  1  0  0  0
M  END
>  <CHROM.1>
-175.45177544,-162.30283659,-98.57336907,42.39428220,89.26033274,-165.37466027
20.59646046,28.80027532,36.38653948,2.36302796,0.52339537,-3.07014425

>  <Name>
ligand

>  <RI>
0

>  <Rbt.Current_Directory>
/home/itssahil/PROJECTS/Mol_Feturizer/New_Systems/rnas/4p3s

>  <Rbt.Executable>
rbdock ($Id: //depot/dev/client3/rdock/2013.1/src/exe/rbdock.cxx#4 $)

>  <Rbt.Library>
libRbt.so (2013.1, Build901 2013/11/27)

>  <Rbt.Parameter_File>
/export/apps/rDock/src/rDock_2013.1_src/data/scripts/dock_solv.prm

>  <Rbt.Receptor>
prm/pocket_docking_3.prm

>  <SCORE>
-18.9918

>  <SCORE.INTER>
-14.8922

>  <SCORE.INTER.CONST>
1

>  <SCORE.INTER.POLAR>
0

>  <SCORE.INTER.ROT>
6

>  <SCORE.INTER.SOLV>
21.0899

>  <SCORE.INTER.VDW>
-24.5581

>  <SCORE.INTER.norm>
-0.438007

>  <SCORE.INTRA>
-4.09957

>  <SCORE.INTRA.DIHEDRAL>
-7.87473

>  <SCORE.INTRA.DIHEDRAL.0>
15.8194

>  <SCORE.INTRA.POLAR>
0

>  <SCORE.INTRA.POLAR.0>
0

>  <SCORE.INTRA.REPUL>
0

>  <SCORE.INTRA.REPUL.0>
0

>  <SCORE.INTRA.SOLV>
-0.138747

>  <SCORE.INTRA.SOLV.lig_0>
-71.9159

>  <SCORE.INTRA.VDW>
-0.0928334

>  <SCORE.INTRA.VDW.0>
-3.53918

>  <SCORE.INTRA.norm>
-0.120576

>  <SCORE.RESTR>
0

>  <SCORE.RESTR.CAVITY>
0

>  <SCORE.RESTR.norm>
0

>  <SCORE.SYSTEM>
0

>  <SCORE.SYSTEM.CONST>
0

>  <SCORE.SYSTEM.DIHEDRAL>
0

>  <SCORE.SYSTEM.SOLV>
0

>  <SCORE.SYSTEM.norm>
0

>  <SCORE.heavy>
34

>  <SCORE.norm>
-0.558582

>  <RMSD>
0.944

$$$$
ligand
 OpenBabel01301917533D
libRbt.so/2013.1/901 2013/11/27
 34 36  0  0  0  0  0  0  0  0999 V2000
   18.2393   28.1431   35.0932 C   0  0  2  0  0  0  0  0  0  0  0  0
   18.7795   27.4223   36.2053 O   0  0  0  0  0  0  0  0  0  0  0  0
   22.4603   27.6796   38.3934 C   0  0  2  0  0  0  0  0  0  0  0  0
   23.8861   27.6192   38.7428 N   0  0  0  0  0  0  0  0  0  0  0  0
   23.9870   30.5264   37.7073 C   0  0  2  0  0  0  0  0  0  0  0  0
   16.7236   28.4448   35.3971 C   0  0  2  0  0  0  0  0  0  0  0  0
   16.5825   29.2308   36.6333 N   0  0  0  0  0  0  0  0  0  0  0  0
   22.0441   26.2706   37.8360 C   0  0  0  0  0  0  0  0  0  0  0  0
   24.1309   31.7285   38.7219 C   0  0  2  0  0  0  0  0  0  0  0  0
   23.8928   31.2855   40.0469 O   0  0  0  0  0  0  0  0  0  0  0  0
   15.9228   27.1129   35.5150 C   0  0  1  0  0  0  0  0  0  0  0  0
   14.5366   27.3841   35.7929 O   0  0  0  0  0  0  0  0  0  0  0  0
   20.5167   26.3303   37.4813 C   0  0  2  0  0  0  0  0  0  0  0  0
   20.0516   25.0223   36.9380 N   0  0  0  0  0  0  0  0  0  0  0  0
   23.0859   32.8373   38.3208 C   0  0  1  0  0  0  0  0  0  0  0  0
   23.1442   33.9784   39.2564 N   0  0  0  0  0  0  0  0  0  0  0  0
   16.0959   26.3215   34.1975 C   0  0  2  0  0  0  0  0  0  0  0  0
   15.3573   25.0985   34.2803 O   0  0  0  0  0  0  0  0  0  0  0  0
   20.2354   27.4416   36.4252 C   0  0  2  0  0  0  0  0  0  0  0  0
   23.3833   33.3131   36.8636 C   0  0  1  0  0  0  0  0  0  0  0  0
   24.6879   33.8828   36.8339 O   0  0  0  0  0  0  0  0  0  0  0  0
   17.6447   26.0535   33.9616 C   0  0  2  0  0  0  0  0  0  0  0  0
   18.3916   27.3291   33.8895 O   0  0  0  0  0  0  0  0  0  0  0  0
   20.7199   28.8079   36.9818 C   0  0  2  0  0  0  0  0  0  0  0  0
   20.4802   29.8000   35.9858 O   0  0  0  0  0  0  0  0  0  0  0  0
   23.3181   32.0798   35.9065 C   0  0  0  0  0  0  0  0  0  0  0  0
   24.2514   31.0118   36.3386 O   0  0  0  0  0  0  0  0  0  0  0  0
   17.9234   25.2627   32.6512 C   0  0  2  0  0  0  0  0  0  0  0  0
   17.1307   24.0704   32.6420 O   0  0  0  0  0  0  0  0  0  0  0  0
   22.2377   28.7994   37.2894 C   0  0  1  0  0  0  0  0  0  0  0  0
   22.5910   30.1035   37.8271 O   0  0  0  0  0  0  0  0  0  0  0  0
   19.3751   24.8552   32.5276 C   0  0  0  0  0  0  0  0  0  0  0  0
   22.3949   34.3802   36.3910 C   0  0  0  0  0  0  0  0  0  0  0  0
   22.0567   33.7954   40.2488 C   0  0  0  0  0  0  0  0  0  0  0  0
  1  2  1  1  0  0  0
  1  6  1  0  0  0  0
  1 23  1  0  0  0  0
  3  4  1  6  0  0  0
  3  8  1  0  0  0  0
  3 30  1  0  0  0  0
  5  9  1  0  0  0  0
  5 27  1  0  0  0  0
  5 31  1  6  0  0  0
  6  7  1  1  0  0  0
  6 11  1  0  0  0  0
  8 13  1  0  0  0  0
  9 10  1  1  0  0  0
  9 15  1  0  0  0  0
 11 12  1  6  0  0  0
 11 17  1  0  0  0  0
 13 14  1  6  0  0  0
 13 19  1  0  0  0  0
 15 16  1  1  0  0  0
 15 20  1  0  0  0  0
 16 34  1  0  0  0  0
 17 18  1  1  0  0  0
 17 22  1  0  0  0  0
 19  2  1  1  0  0  0
 19 24  1  0  0  0  0
 20 21  1  6  0  0  0
 20 26  1  0  0  0  0
 20 33  1  0  0  0  0
 22 23  1  6  0  0  0
 22 28  1  0  0  0  0
 24 25  1  6  0  0  0
 24 30  1  0  0  0  0
 26 27  1  0  0  0  0
 28 29  1  1  0  0  0
 28 32  1  0  0  0  0
 30 31  1  1  0  0  0
M  END
>  <CHROM.1>
-157.72914018,-167.51691493,-97.88664053,-52.93752783,87.92373135,-163.95310924
20.46601855,28.93106845,36.43382557,2.36462087,0.39075663,-2.97935343

>  <Name>
ligand

>  <RI>
0

>  <Rbt.Current_Directory>
/home/itssahil/PROJECTS/Mol_Feturizer/New_Systems/rnas/4p3s

>  <Rbt.Executable>
rbdock ($Id: //depot/dev/client3/rdock/2013.1/src/exe/rbdock.cxx#4 $)

>  <Rbt.Library>
libRbt.so (2013.1, Build901 2013/11/27)

>  <Rbt.Parameter_File>
/export/apps/rDock/src/rDock_2013.1_src/data/scripts/dock_solv.prm

>  <Rbt.Receptor>
prm/pocket_docking_7.prm

>  <SCORE>
-19.2204

>  <SCORE.INTER>
-15.5766

>  <SCORE.INTER.CONST>
1

>  <SCORE.INTER.POLAR>
0

>  <SCORE.INTER.ROT>
6

>  <SCORE.INTER.SOLV>
20.1372

>  <SCORE.INTER.VDW>
-24.6968

>  <SCORE.INTER.norm>
-0.458134

>  <SCORE.INTRA>
-3.64388

>  <SCORE.INTRA.DIHEDRAL>
-7.40839

>  <SCORE.INTRA.DIHEDRAL.0>
15.8194

>  <SCORE.INTRA.POLAR>
0

>  <SCORE.INTRA.POLAR.0>
0

>  <SCORE.INTRA.REPUL>
0

>  <SCORE.INTRA.REPUL.0>
0

>  <SCORE.INTRA.SOLV>
0.0549032

>  <SCORE.INTRA.SOLV.lig_0>
-71.9159

>  <SCORE.INTRA.VDW>
0.0328663

>  <SCORE.INTRA.VDW.0>
-3.53918

>  <SCORE.INTRA.norm>
-0.107173

>  <SCORE.RESTR>
0

>  <SCORE.RESTR.CAVITY>
0

>  <SCORE.RESTR.norm>
0

>  <SCORE.SYSTEM>
0

>  <SCORE.SYSTEM.CONST>
0

>  <SCORE.SYSTEM.DIHEDRAL>
0

>  <SCORE.SYSTEM.SOLV>
0

>  <SCORE.SYSTEM.norm>
0

>  <SCORE.heavy>
34

>  <SCORE.norm>
-0.565307

>  <RMSD>
0.944

$$$$
ligand
 OpenBabel01301917533D
libRbt.so/2013.1/901 2013/11/27
 34 36  0  0  0  0  0  0  0  0999 V2000
   18.2540   28.0023   35.3003 C   0  0  2  0  0  0  0  0  0  0  0  0
   18.8363   27.3706   36.4449 O   0  0  0  0  0  0  0  0  0  0  0  0
   22.5823   27.7179   38.5062 C   0  0  2  0  0  0  0  0  0  0  0  0
   24.0197   27.6866   38.8086 N   0  0  0  0  0  0  0  0  0  0  0  0
   24.0446   30.5641   37.7790 C   0  0  2  0  0  0  0  0  0  0  0  0
   16.6878   27.8943   35.4274 C   0  0  2  0  0  0  0  0  0  0  0  0
   16.2157   28.5393   36.6631 N   0  0  0  0  0  0  0  0  0  0  0  0
   22.1731   26.2954   37.9788 C   0  0  0  0  0  0  0  0  0  0  0  0
   24.1788   31.7990   38.7549 C   0  0  2  0  0  0  0  0  0  0  0  0
   23.9399   31.3972   40.0928 O   0  0  0  0  0  0  0  0  0  0  0  0
   16.2476   26.3995   35.4017 C   0  0  1  0  0  0  0  0  0  0  0  0
   14.8164   26.2960   35.5178 O   0  0  0  0  0  0  0  0  0  0  0  0
   20.6340   26.3243   37.6744 C   0  0  2  0  0  0  0  0  0  0  0  0
   20.1747   25.0020   37.1615 N   0  0  0  0  0  0  0  0  0  0  0  0
   23.1284   32.8881   38.3159 C   0  0  1  0  0  0  0  0  0  0  0  0
   23.1774   34.0589   39.2146 N   0  0  0  0  0  0  0  0  0  0  0  0
   16.7606   25.7624   34.0891 C   0  0  2  0  0  0  0  0  0  0  0  0
   16.3560   24.3906   34.0398 O   0  0  0  0  0  0  0  0  0  0  0  0
   20.2981   27.4180   36.6160 C   0  0  2  0  0  0  0  0  0  0  0  0
   23.4268   33.3187   36.8449 C   0  0  1  0  0  0  0  0  0  0  0  0
   24.7281   33.8949   36.8001 O   0  0  0  0  0  0  0  0  0  0  0  0
   18.3425   25.9070   34.0346 C   0  0  2  0  0  0  0  0  0  0  0  0
   18.7404   27.3310   34.0973 O   0  0  0  0  0  0  0  0  0  0  0  0
   20.7763   28.7990   37.1409 C   0  0  2  0  0  0  0  0  0  0  0  0
   20.4861   29.7750   36.1424 O   0  0  0  0  0  0  0  0  0  0  0  0
   23.3714   32.0550   35.9277 C   0  0  0  0  0  0  0  0  0  0  0  0
   24.3097   31.0070   36.3961 O   0  0  0  0  0  0  0  0  0  0  0  0
   18.9560   25.2966   32.7419 C   0  0  2  0  0  0  0  0  0  0  0  0
   18.1238   25.6252   31.6240 O   0  0  0  0  0  0  0  0  0  0  0  0
   22.3034   28.8206   37.3978 C   0  0  1  0  0  0  0  0  0  0  0  0
   22.6508   30.1370   37.9089 O   0  0  0  0  0  0  0  0  0  0  0  0
   19.0596   23.7891   32.8153 C   0  0  0  0  0  0  0  0  0  0  0  0
   22.4333   34.3642   36.3360 C   0  0  0  0  0  0  0  0  0  0  0  0
   22.1185   33.8786   40.2377 C   0  0  0  0  0  0  0  0  0  0  0  0
  1  2  1  1  0  0  0
  1  6  1  0  0  0  0
  1 23  1  0  0  0  0
  3  4  1  6  0  0  0
  3  8  1  0  0  0  0
  3 30  1  0  0  0  0
  5  9  1  0  0  0  0
  5 27  1  0  0  0  0
  5 31  1  6  0  0  0
  6  7  1  1  0  0  0
  6 11  1  0  0  0  0
  8 13  1  0  0  0  0
  9 10  1  1  0  0  0
  9 15  1  0  0  0  0
 11 12  1  6  0  0  0
 11 17  1  0  0  0  0
 13 14  1  6  0  0  0
 13 19  1  0  0  0  0
 15 16  1  1  0  0  0
 15 20  1  0  0  0  0
 16 34  1  0  0  0  0
 17 18  1  1  0  0  0
 17 22  1  0  0  0  0
 19  2  1  1  0  0  0
 19 24  1  0  0  0  0
 20 21  1  6  0  0  0
 20 26  1  0  0  0  0
 20 33  1  0  0  0  0
 22 23  1  6  0  0  0
 22 28  1  0  0  0  0
 24 25  1  6  0  0  0
 24 30  1  0  0  0  0
 26 27  1  0  0  0  0
 28 29  1  6  0  0  0
 28 32  1  0  0  0  0
 30 31  1  1  0  0  0
M  END
>  <CHROM.1>
-175.74625393,-163.88161859,-95.98587590,40.98065402,85.88539129,-164.67727527
20.64714184,28.82732048,36.45538811,2.36896553,0.51647459,-3.09316623

>  <Name>
ligand

>  <RI>
0

>  <Rbt.Current_Directory>
/home/itssahil/PROJECTS/Mol_Feturizer/New_Systems/rnas/4p3s

>  <Rbt.Executable>
rbdock ($Id: //depot/dev/client3/rdock/2013.1/src/exe/rbdock.cxx#4 $)

>  <Rbt.Library>
libRbt.so (2013.1, Build901 2013/11/27)

>  <Rbt.Parameter_File>
/export/apps/rDock/src/rDock_2013.1_src/data/scripts/dock_solv.prm

>  <Rbt.Receptor>
prm/pocket_docking_5.prm

>  <SCORE>
-19.0154

>  <SCORE.INTER>
-14.7057

>  <SCORE.INTER.CONST>
1

>  <SCORE.INTER.POLAR>
0

>  <SCORE.INTER.ROT>
6

>  <SCORE.INTER.SOLV>
21.0658

>  <SCORE.INTER.VDW>
-24.4257

>  <SCORE.INTER.norm>
-0.432519

>  <SCORE.INTRA>
-4.30979

>  <SCORE.INTRA.DIHEDRAL>
-8.55744

>  <SCORE.INTRA.DIHEDRAL.0>
15.8194

>  <SCORE.INTRA.POLAR>
0

>  <SCORE.INTRA.POLAR.0>
0

>  <SCORE.INTRA.REPUL>
0

>  <SCORE.INTRA.REPUL.0>
0

>  <SCORE.INTRA.SOLV>
-0.182589

>  <SCORE.INTRA.SOLV.lig_0>
-71.9159

>  <SCORE.INTRA.VDW>
0.0602206

>  <SCORE.INTRA.VDW.0>
-3.53918

>  <SCORE.INTRA.norm>
-0.126759

>  <SCORE.RESTR>
0

>  <SCORE.RESTR.CAVITY>
0

>  <SCORE.RESTR.norm>
0

>  <SCORE.SYSTEM>
0

>  <SCORE.SYSTEM.CONST>
0

>  <SCORE.SYSTEM.DIHEDRAL>
0

>  <SCORE.SYSTEM.SOLV>
0

>  <SCORE.SYSTEM.norm>
0

>  <SCORE.heavy>
34

>  <SCORE.norm>
-0.559278

>  <RMSD>
0.945

$$$$
ligand
 OpenBabel01301917533D
libRbt.so/2013.1/901 2013/11/27
 34 36  0  0  0  0  0  0  0  0999 V2000
   18.2060   28.0825   35.0444 C   0  0  2  0  0  0  0  0  0  0  0  0
   18.7520   27.3613   36.1534 O   0  0  0  0  0  0  0  0  0  0  0  0
   22.4203   27.6606   38.3570 C   0  0  2  0  0  0  0  0  0  0  0  0
   23.8454   27.6182   38.7119 N   0  0  0  0  0  0  0  0  0  0  0  0
   23.9145   30.5234   37.7002 C   0  0  2  0  0  0  0  0  0  0  0  0
   16.6858   28.3635   35.3458 C   0  0  2  0  0  0  0  0  0  0  0  0
   16.5315   29.1396   36.5867 N   0  0  0  0  0  0  0  0  0  0  0  0
   22.0252   26.2480   37.7933 C   0  0  0  0  0  0  0  0  0  0  0  0
   24.0293   31.7347   38.7077 C   0  0  2  0  0  0  0  0  0  0  0  0
   23.7724   31.2996   40.0318 O   0  0  0  0  0  0  0  0  0  0  0  0
   15.9013   27.0211   35.4529 C   0  0  1  0  0  0  0  0  0  0  0  0
   14.5110   27.2732   35.7286 O   0  0  0  0  0  0  0  0  0  0  0  0
   20.4986   26.2885   37.4327 C   0  0  2  0  0  0  0  0  0  0  0  0
   20.0533   24.9761   36.8833 N   0  0  0  0  0  0  0  0  0  0  0  0
   22.9810   32.8302   38.2797 C   0  0  1  0  0  0  0  0  0  0  0  0
   23.0121   33.9790   39.2071 N   0  0  0  0  0  0  0  0  0  0  0  0
   16.0879   26.2403   34.1309 C   0  0  2  0  0  0  0  0  0  0  0  0
   15.3642   25.0078   34.2036 O   0  0  0  0  0  0  0  0  0  0  0  0
   20.2065   27.3994   36.3792 C   0  0  2  0  0  0  0  0  0  0  0  0
   23.2992   33.2975   36.8242 C   0  0  1  0  0  0  0  0  0  0  0  0
   24.5986   33.8794   36.8126 O   0  0  0  0  0  0  0  0  0  0  0  0
   17.6405   25.9931   33.8977 C   0  0  2  0  0  0  0  0  0  0  0  0
   18.3717   27.2783   33.8360 O   0  0  0  0  0  0  0  0  0  0  0  0
   20.6705   28.7702   36.9422 C   0  0  2  0  0  0  0  0  0  0  0  0
   20.4215   29.7624   35.9486 O   0  0  0  0  0  0  0  0  0  0  0  0
   23.2624   32.0562   35.8759 C   0  0  0  0  0  0  0  0  0  0  0  0
   24.1980   31.0006   36.3325 O   0  0  0  0  0  0  0  0  0  0  0  0
   17.9327   25.2143   32.5830 C   0  0  2  0  0  0  0  0  0  0  0  0
   17.1525   24.0139   32.5625 O   0  0  0  0  0  0  0  0  0  0  0  0
   22.1871   28.7810   37.2558 C   0  0  1  0  0  0  0  0  0  0  0  0
   22.5207   30.0880   37.7991 O   0  0  0  0  0  0  0  0  0  0  0  0
   19.3890   24.8228   32.4625 C   0  0  0  0  0  0  0  0  0  0  0  0
   22.3091   34.3513   36.3261 C   0  0  0  0  0  0  0  0  0  0  0  0
   21.8947   33.8054   40.1673 C   0  0  0  0  0  0  0  0  0  0  0  0
  1  2  1  1  0  0  0
  1  6  1  0  0  0  0
  1 23  1  0  0  0  0
  3  4  1  6  0  0  0
  3  8  1  0  0  0  0
  3 30  1  0  0  0  0
  5  9  1  0  0  0  0
  5 27  1  0  0  0  0
  5 31  1  6  0  0  0
  6  7  1  1  0  0  0
  6 11  1  0  0  0  0
  8 13  1  0  0  0  0
  9 10  1  1  0  0  0
  9 15  1  0  0  0  0
 11 12  1  6  0  0  0
 11 17  1  0  0  0  0
 13 14  1  6  0  0  0
 13 19  1  0  0  0  0
 15 16  1  1  0  0  0
 15 20  1  0  0  0  0
 16 34  1  0  0  0  0
 17 18  1  1  0  0  0
 17 22  1  0  0  0  0
 19  2  1  1  0  0  0
 19 24  1  0  0  0  0
 20 21  1  6  0  0  0
 20 26  1  0  0  0  0
 20 33  1  0  0  0  0
 22 23  1  6  0  0  0
 22 28  1  0  0  0  0
 24 25  1  6  0  0  0
 24 30  1  0  0  0  0
 26 27  1  0  0  0  0
 28 29  1  1  0  0  0
 28 32  1  0  0  0  0
 30 31  1  1  0  0  0
M  END
>  <CHROM.1>
-157.60987382,-167.74373194,-98.85521647,-52.80361476,87.23097558,-164.45274710
20.41848208,28.89393744,36.38763490,2.35127265,0.39078832,-2.97154909

>  <Name>
ligand

>  <RI>
0

>  <Rbt.Current_Directory>
/home/itssahil/PROJECTS/Mol_Feturizer/New_Systems/rnas/4p3s

>  <Rbt.Executable>
rbdock ($Id: //depot/dev/client3/rdock/2013.1/src/exe/rbdock.cxx#4 $)

>  <Rbt.Library>
libRbt.so (2013.1, Build901 2013/11/27)

>  <Rbt.Parameter_File>
/export/apps/rDock/src/rDock_2013.1_src/data/scripts/dock_solv.prm

>  <Rbt.Receptor>
prm/pocket_docking_3.prm

>  <SCORE>
-19.1804

>  <SCORE.INTER>
-15.4392

>  <SCORE.INTER.CONST>
1

>  <SCORE.INTER.POLAR>
0

>  <SCORE.INTER.ROT>
6

>  <SCORE.INTER.SOLV>
20.1666

>  <SCORE.INTER.VDW>
-24.615

>  <SCORE.INTER.norm>
-0.454093

>  <SCORE.INTRA>
-3.74128

>  <SCORE.INTRA.DIHEDRAL>
-7.57474

>  <SCORE.INTRA.DIHEDRAL.0>
15.8194

>  <SCORE.INTRA.POLAR>
0

>  <SCORE.INTRA.POLAR.0>
0

>  <SCORE.INTRA.REPUL>
0

>  <SCORE.INTRA.REPUL.0>
0

>  <SCORE.INTRA.SOLV>
0.0432509

>  <SCORE.INTRA.SOLV.lig_0>
-71.9159

>  <SCORE.INTRA.VDW>
0.0244619

>  <SCORE.INTRA.VDW.0>
-3.53918

>  <SCORE.INTRA.norm>
-0.110038

>  <SCORE.RESTR>
0

>  <SCORE.RESTR.CAVITY>
0

>  <SCORE.RESTR.norm>
0

>  <SCORE.SYSTEM>
0

>  <SCORE.SYSTEM.CONST>
0

>  <SCORE.SYSTEM.DIHEDRAL>
0

>  <SCORE.SYSTEM.SOLV>
0

>  <SCORE.SYSTEM.norm>
0

>  <SCORE.heavy>
34

>  <SCORE.norm>
-0.564131

>  <RMSD>
0.948

$$$$
ligand
 OpenBabel01301917533D
libRbt.so/2013.1/901 2013/11/27
 34 36  0  0  0  0  0  0  0  0999 V2000
   18.3850   28.1808   35.3138 C   0  0  2  0  0  0  0  0  0  0  0  0
   18.9201   27.5143   36.4617 O   0  0  0  0  0  0  0  0  0  0  0  0
   22.6406   27.6582   38.5923 C   0  0  2  0  0  0  0  0  0  0  0  0
   24.0700   27.5608   38.9174 N   0  0  0  0  0  0  0  0  0  0  0  0
   24.1826   30.5438   37.7950 C   0  0  2  0  0  0  0  0  0  0  0  0
   16.8137   28.1415   35.4150 C   0  0  2  0  0  0  0  0  0  0  0  0
   16.3507   28.7966   36.6489 N   0  0  0  0  0  0  0  0  0  0  0  0
   22.1834   26.2668   38.0229 C   0  0  0  0  0  0  0  0  0  0  0  0
   24.3851   31.7768   38.7615 C   0  0  2  0  0  0  0  0  0  0  0  0
   24.2856   31.3639   40.1136 O   0  0  0  0  0  0  0  0  0  0  0  0
   16.3081   26.6680   35.3689 C   0  0  1  0  0  0  0  0  0  0  0  0
   14.8721   26.6274   35.4614 O   0  0  0  0  0  0  0  0  0  0  0  0
   20.6523   26.3659   37.6941 C   0  0  2  0  0  0  0  0  0  0  0  0
   20.1488   25.0763   37.1409 N   0  0  0  0  0  0  0  0  0  0  0  0
   23.2744   32.8451   38.4336 C   0  0  1  0  0  0  0  0  0  0  0  0
   23.3860   34.0126   39.3310 N   0  0  0  0  0  0  0  0  0  0  0  0
   16.8136   26.0196   34.0589 C   0  0  2  0  0  0  0  0  0  0  0  0
   16.3494   24.6676   33.9909 O   0  0  0  0  0  0  0  0  0  0  0  0
   20.3793   27.4978   36.6579 C   0  0  2  0  0  0  0  0  0  0  0  0
   23.4195   33.2886   36.9435 C   0  0  1  0  0  0  0  0  0  0  0  0
   24.6980   33.8928   36.7765 O   0  0  0  0  0  0  0  0  0  0  0  0
   18.4010   26.0941   34.0308 C   0  0  2  0  0  0  0  0  0  0  0  0
   18.8606   27.4985   34.1126 O   0  0  0  0  0  0  0  0  0  0  0  0
   20.9038   28.8450   37.2249 C   0  0  2  0  0  0  0  0  0  0  0  0
   20.6708   29.8560   36.2465 O   0  0  0  0  0  0  0  0  0  0  0  0
   23.3017   32.0281   36.0277 C   0  0  0  0  0  0  0  0  0  0  0  0
   24.3029   30.9985   36.3959 O   0  0  0  0  0  0  0  0  0  0  0  0
   19.0078   25.4678   32.7425 C   0  0  2  0  0  0  0  0  0  0  0  0
   18.2721   25.9268   31.6031 O   0  0  0  0  0  0  0  0  0  0  0  0
   22.4258   28.7979   37.5073 C   0  0  1  0  0  0  0  0  0  0  0  0
   22.8173   30.0862   38.0567 O   0  0  0  0  0  0  0  0  0  0  0  0
   18.9440   23.9564   32.7574 C   0  0  0  0  0  0  0  0  0  0  0  0
   22.3597   34.3148   36.5402 C   0  0  0  0  0  0  0  0  0  0  0  0
   22.4901   33.7708   40.4884 C   0  0  0  0  0  0  0  0  0  0  0  0
  1  2  1  1  0  0  0
  1  6  1  0  0  0  0
  1 23  1  0  0  0  0
  3  4  1  6  0  0  0
  3  8  1  0  0  0  0
  3 30  1  0  0  0  0
  5  9  1  0  0  0  0
  5 27  1  0  0  0  0
  5 31  1  6  0  0  0
  6  7  1  1  0  0  0
  6 11  1  0  0  0  0
  8 13  1  0  0  0  0
  9 10  1  1  0  0  0
  9 15  1  0  0  0  0
 11 12  1  6  0  0  0
 11 17  1  0  0  0  0
 13 14  1  6  0  0  0
 13 19  1  0  0  0  0
 15 16  1  1  0  0  0
 15 20  1  0  0  0  0
 16 34  1  0  0  0  0
 17 18  1  1  0  0  0
 17 22  1  0  0  0  0
 19  2  1  1  0  0  0
 19 24  1  0  0  0  0
 20 21  1  6  0  0  0
 20 26  1  0  0  0  0
 20 33  1  0  0  0  0
 22 23  1  6  0  0  0
 22 28  1  0  0  0  0
 24 25  1  6  0  0  0
 24 30  1  0  0  0  0
 26 27  1  0  0  0  0
 28 29  1  6  0  0  0
 28 32  1  0  0  0  0
 30 31  1  1  0  0  0
M  END
>  <CHROM.1>
-175.61371326,-163.01190191,-92.96384606,45.46759230,94.34178247,-168.10681423
20.73381926,28.90510757,36.49621964,2.41827229,0.56100520,-3.12987011

>  <Name>
ligand

>  <RI>
0

>  <Rbt.Current_Directory>
/home/itssahil/PROJECTS/Mol_Feturizer/New_Systems/rnas/4p3s

>  <Rbt.Executable>
rbdock ($Id: //depot/dev/client3/rdock/2013.1/src/exe/rbdock.cxx#4 $)

>  <Rbt.Library>
libRbt.so (2013.1, Build901 2013/11/27)

>  <Rbt.Parameter_File>
/export/apps/rDock/src/rDock_2013.1_src/data/scripts/dock_solv.prm

>  <Rbt.Receptor>
prm/pocket_docking_4.prm

>  <SCORE>
-19.1514

>  <SCORE.INTER>
-15.2028

>  <SCORE.INTER.CONST>
1

>  <SCORE.INTER.POLAR>
0

>  <SCORE.INTER.ROT>
6

>  <SCORE.INTER.SOLV>
21.2446

>  <SCORE.INTER.VDW>
-24.8167

>  <SCORE.INTER.norm>
-0.447143

>  <SCORE.INTRA>
-3.94858

>  <SCORE.INTRA.DIHEDRAL>
-7.86712

>  <SCORE.INTRA.DIHEDRAL.0>
15.8194

>  <SCORE.INTRA.POLAR>
0

>  <SCORE.INTRA.POLAR.0>
0

>  <SCORE.INTRA.REPUL>
0

>  <SCORE.INTRA.REPUL.0>
0

>  <SCORE.INTRA.SOLV>
-0.373489

>  <SCORE.INTRA.SOLV.lig_0>
-71.9159

>  <SCORE.INTRA.VDW>
0.171724

>  <SCORE.INTRA.VDW.0>
-3.53918

>  <SCORE.INTRA.norm>
-0.116135

>  <SCORE.RESTR>
0

>  <SCORE.RESTR.CAVITY>
0

>  <SCORE.RESTR.norm>
0

>  <SCORE.SYSTEM>
0

>  <SCORE.SYSTEM.CONST>
0

>  <SCORE.SYSTEM.DIHEDRAL>
0

>  <SCORE.SYSTEM.SOLV>
0

>  <SCORE.SYSTEM.norm>
0

>  <SCORE.heavy>
34

>  <SCORE.norm>
-0.563277

>  <RMSD>
0.950

$$$$
ligand
 OpenBabel01301917533D
libRbt.so/2013.1/901 2013/11/27
 34 36  0  0  0  0  0  0  0  0999 V2000
   18.2947   28.0620   35.3011 C   0  0  2  0  0  0  0  0  0  0  0  0
   18.8596   27.4123   36.4443 O   0  0  0  0  0  0  0  0  0  0  0  0
   22.5889   27.7023   38.5444 C   0  0  2  0  0  0  0  0  0  0  0  0
   24.0230   27.6535   38.8602 N   0  0  0  0  0  0  0  0  0  0  0  0
   24.0737   30.5658   37.8017 C   0  0  2  0  0  0  0  0  0  0  0  0
   16.7263   27.9762   35.4165 C   0  0  2  0  0  0  0  0  0  0  0  0
   16.2551   28.6179   36.6543 N   0  0  0  0  0  0  0  0  0  0  0  0
   22.1703   26.2890   38.0001 C   0  0  0  0  0  0  0  0  0  0  0  0
   24.2236   31.8012   38.7746 C   0  0  2  0  0  0  0  0  0  0  0  0
   24.0255   31.3965   40.1183 O   0  0  0  0  0  0  0  0  0  0  0  0
   16.2641   26.4883   35.3754 C   0  0  1  0  0  0  0  0  0  0  0  0
   14.8308   26.4052   35.4808 O   0  0  0  0  0  0  0  0  0  0  0  0
   20.6346   26.3364   37.6814 C   0  0  2  0  0  0  0  0  0  0  0  0
   20.1667   25.0237   37.1521 N   0  0  0  0  0  0  0  0  0  0  0  0
   23.1516   32.8810   38.3657 C   0  0  1  0  0  0  0  0  0  0  0  0
   23.2149   34.0517   39.2636 N   0  0  0  0  0  0  0  0  0  0  0  0
   16.7769   25.8545   34.0611 C   0  0  2  0  0  0  0  0  0  0  0  0
   16.3523   24.4893   33.9976 O   0  0  0  0  0  0  0  0  0  0  0  0
   20.3201   27.4431   36.6298 C   0  0  2  0  0  0  0  0  0  0  0  0
   23.4053   33.3151   36.8874 C   0  0  1  0  0  0  0  0  0  0  0  0
   24.6996   33.9032   36.8071 O   0  0  0  0  0  0  0  0  0  0  0  0
   18.3610   25.9760   34.0186 C   0  0  2  0  0  0  0  0  0  0  0  0
   18.7795   27.3934   34.0958 O   0  0  0  0  0  0  0  0  0  0  0  0
   20.8073   28.8143   37.1718 C   0  0  2  0  0  0  0  0  0  0  0  0
   20.5367   29.8022   36.1796 O   0  0  0  0  0  0  0  0  0  0  0  0
   23.3359   32.0514   35.9710 C   0  0  0  0  0  0  0  0  0  0  0  0
   24.2964   31.0118   36.4124 O   0  0  0  0  0  0  0  0  0  0  0  0
   18.9745   25.3672   32.7251 C   0  0  2  0  0  0  0  0  0  0  0  0
   18.2503   25.8488   31.5876 O   0  0  0  0  0  0  0  0  0  0  0  0
   22.3320   28.8178   37.4435 C   0  0  1  0  0  0  0  0  0  0  0  0
   22.6879   30.1258   37.9698 O   0  0  0  0  0  0  0  0  0  0  0  0
   18.9022   23.8562   32.7148 C   0  0  0  0  0  0  0  0  0  0  0  0
   22.3887   34.3518   36.4070 C   0  0  0  0  0  0  0  0  0  0  0  0
   22.2257   33.8345   40.3476 C   0  0  0  0  0  0  0  0  0  0  0  0
  1  2  1  1  0  0  0
  1  6  1  0  0  0  0
  1 23  1  0  0  0  0
  3  4  1  6  0  0  0
  3  8  1  0  0  0  0
  3 30  1  0  0  0  0
  5  9  1  0  0  0  0
  5 27  1  0  0  0  0
  5 31  1  6  0  0  0
  6  7  1  1  0  0  0
  6 11  1  0  0  0  0
  8 13  1  0  0  0  0
  9 10  1  1  0  0  0
  9 15  1  0  0  0  0
 11 12  1  6  0  0  0
 11 17  1  0  0  0  0
 13 14  1  6  0  0  0
 13 19  1  0  0  0  0
 15 16  1  1  0  0  0
 15 20  1  0  0  0  0
 16 34  1  0  0  0  0
 17 18  1  1  0  0  0
 17 22  1  0  0  0  0
 19  2  1  1  0  0  0
 19 24  1  0  0  0  0
 20 21  1  6  0  0  0
 20 26  1  0  0  0  0
 20 33  1  0  0  0  0
 22 23  1  6  0  0  0
 22 28  1  0  0  0  0
 24 25  1  6  0  0  0
 24 30  1  0  0  0  0
 26 27  1  0  0  0  0
 28 29  1  6  0  0  0
 28 32  1  0  0  0  0
 30 31  1  1  0  0  0
M  END
>  <CHROM.1>
-175.40789053,-163.97210712,-93.66538943,47.90215840,88.64926861,-165.88709257
20.66461143,28.86095351,36.46768595,2.39547990,0.55220806,-3.12365994

>  <Name>
ligand

>  <RI>
0

>  <Rbt.Current_Directory>
/home/itssahil/PROJECTS/Mol_Feturizer/New_Systems/rnas/4p3s

>  <Rbt.Executable>
rbdock ($Id: //depot/dev/client3/rdock/2013.1/src/exe/rbdock.cxx#4 $)

>  <Rbt.Library>
libRbt.so (2013.1, Build901 2013/11/27)

>  <Rbt.Parameter_File>
/export/apps/rDock/src/rDock_2013.1_src/data/scripts/dock_solv.prm

>  <Rbt.Receptor>
prm/pocket_docking_4.prm

>  <SCORE>
-19.2186

>  <SCORE.INTER>
-14.9122

>  <SCORE.INTER.CONST>
1

>  <SCORE.INTER.POLAR>
0

>  <SCORE.INTER.ROT>
6

>  <SCORE.INTER.SOLV>
21.1503

>  <SCORE.INTER.VDW>
-24.5915

>  <SCORE.INTER.norm>
-0.438593

>  <SCORE.INTRA>
-4.30646

>  <SCORE.INTRA.DIHEDRAL>
-8.97421

>  <SCORE.INTRA.DIHEDRAL.0>
15.8194

>  <SCORE.INTRA.POLAR>
0

>  <SCORE.INTRA.POLAR.0>
0

>  <SCORE.INTRA.REPUL>
0

>  <SCORE.INTRA.REPUL.0>
0

>  <SCORE.INTRA.SOLV>
-0.33269

>  <SCORE.INTRA.SOLV.lig_0>
-71.9159

>  <SCORE.INTRA.VDW>
0.346991

>  <SCORE.INTRA.VDW.0>
-3.53918

>  <SCORE.INTRA.norm>
-0.126661

>  <SCORE.RESTR>
0

>  <SCORE.RESTR.CAVITY>
0

>  <SCORE.RESTR.norm>
0

>  <SCORE.SYSTEM>
0

>  <SCORE.SYSTEM.CONST>
0

>  <SCORE.SYSTEM.DIHEDRAL>
0

>  <SCORE.SYSTEM.SOLV>
0

>  <SCORE.SYSTEM.norm>
0

>  <SCORE.heavy>
34

>  <SCORE.norm>
-0.565253

>  <RMSD>
0.951

$$$$
ligand
 OpenBabel01301917533D
libRbt.so/2013.1/901 2013/11/27
 34 36  0  0  0  0  0  0  0  0999 V2000
   18.3058   27.9815   35.3353 C   0  0  2  0  0  0  0  0  0  0  0  0
   18.8844   27.2852   36.4437 O   0  0  0  0  0  0  0  0  0  0  0  0
   22.5905   27.7034   38.5632 C   0  0  2  0  0  0  0  0  0  0  0  0
   24.0225   27.6898   38.8914 N   0  0  0  0  0  0  0  0  0  0  0  0
   24.0273   30.5746   37.7406 C   0  0  2  0  0  0  0  0  0  0  0  0
   16.7390   27.8761   35.4570 C   0  0  2  0  0  0  0  0  0  0  0  0
   16.2709   28.4560   36.7262 N   0  0  0  0  0  0  0  0  0  0  0  0
   22.2018   26.2676   38.0570 C   0  0  0  0  0  0  0  0  0  0  0  0
   24.1696   31.7997   38.7276 C   0  0  2  0  0  0  0  0  0  0  0  0
   23.9940   31.3747   40.0682 O   0  0  0  0  0  0  0  0  0  0  0  0
   16.2898   26.3876   35.3505 C   0  0  1  0  0  0  0  0  0  0  0  0
   14.8580   26.2866   35.4614 O   0  0  0  0  0  0  0  0  0  0  0  0
   20.6681   26.2779   37.7251 C   0  0  2  0  0  0  0  0  0  0  0  0
   20.2283   24.9421   37.2305 N   0  0  0  0  0  0  0  0  0  0  0  0
   23.0760   32.8675   38.3456 C   0  0  1  0  0  0  0  0  0  0  0  0
   23.1319   34.0275   39.2578 N   0  0  0  0  0  0  0  0  0  0  0  0
   16.7988   25.8196   34.0050 C   0  0  2  0  0  0  0  0  0  0  0  0
   16.3859   24.4549   33.8816 O   0  0  0  0  0  0  0  0  0  0  0  0
   20.3425   27.3478   36.6395 C   0  0  2  0  0  0  0  0  0  0  0  0
   23.3051   33.3246   36.8701 C   0  0  1  0  0  0  0  0  0  0  0  0
   24.5889   33.9339   36.7821 O   0  0  0  0  0  0  0  0  0  0  0  0
   18.3815   25.9574   33.9578 C   0  0  2  0  0  0  0  0  0  0  0  0
   18.7880   27.3735   34.0974 O   0  0  0  0  0  0  0  0  0  0  0  0
   20.8006   28.7427   37.1452 C   0  0  2  0  0  0  0  0  0  0  0  0
   20.5205   29.6965   36.1227 O   0  0  0  0  0  0  0  0  0  0  0  0
   23.2444   32.0718   35.9383 C   0  0  0  0  0  0  0  0  0  0  0  0
   24.2262   31.0418   36.3546 O   0  0  0  0  0  0  0  0  0  0  0  0
   18.9912   25.4144   32.6335 C   0  0  2  0  0  0  0  0  0  0  0  0
   18.2345   25.9148   31.5257 O   0  0  0  0  0  0  0  0  0  0  0  0
   22.3226   28.7818   37.4285 C   0  0  1  0  0  0  0  0  0  0  0  0
   22.6507   30.1107   37.9194 O   0  0  0  0  0  0  0  0  0  0  0  0
   18.9633   23.9032   32.5691 C   0  0  0  0  0  0  0  0  0  0  0  0
   22.2667   34.3511   36.4153 C   0  0  0  0  0  0  0  0  0  0  0  0
   22.1271   33.8019   40.3256 C   0  0  0  0  0  0  0  0  0  0  0  0
  1  2  1  1  0  0  0
  1  6  1  0  0  0  0
  1 23  1  0  0  0  0
  3  4  1  6  0  0  0
  3  8  1  0  0  0  0
  3 30  1  0  0  0  0
  5  9  1  0  0  0  0
  5 27  1  0  0  0  0
  5 31  1  6  0  0  0
  6  7  1  1  0  0  0
  6 11  1  0  0  0  0
  8 13  1  0  0  0  0
  9 10  1  1  0  0  0
  9 15  1  0  0  0  0
 11 12  1  6  0  0  0
 11 17  1  0  0  0  0
 13 14  1  6  0  0  0
 13 19  1  0  0  0  0
 15 16  1  1  0  0  0
 15 20  1  0  0  0  0
 16 34  1  0  0  0  0
 17 18  1  1  0  0  0
 17 22  1  0  0  0  0
 19  2  1  1  0  0  0
 19 24  1  0  0  0  0
 20 21  1  6  0  0  0
 20 26  1  0  0  0  0
 20 33  1  0  0  0  0
 22 23  1  6  0  0  0
 22 28  1  0  0  0  0
 24 25  1  6  0  0  0
 24 30  1  0  0  0  0
 26 27  1  0  0  0  0
 28 29  1  6  0  0  0
 28 32  1  0  0  0  0
 30 31  1  1  0  0  0
M  END
>  <CHROM.1>
-173.93606816,-168.90000454,-95.52403305,46.48884970,89.08205813,-163.45258089
20.64833954,28.82951136,36.44674436,2.41898692,0.60375784,3.10372014

>  <Name>
ligand

>  <RI>
0

>  <Rbt.Current_Directory>
/home/itssahil/PROJECTS/Mol_Feturizer/New_Systems/rnas/4p3s

>  <Rbt.Executable>
rbdock ($Id: //depot/dev/client3/rdock/2013.1/src/exe/rbdock.cxx#4 $)

>  <Rbt.Library>
libRbt.so (2013.1, Build901 2013/11/27)

>  <Rbt.Parameter_File>
/export/apps/rDock/src/rDock_2013.1_src/data/scripts/dock_solv.prm

>  <Rbt.Receptor>
prm/pocket_docking_3.prm

>  <SCORE>
-18.9208

>  <SCORE.INTER>
-14.5469

>  <SCORE.INTER.CONST>
1

>  <SCORE.INTER.POLAR>
0

>  <SCORE.INTER.ROT>
6

>  <SCORE.INTER.SOLV>
21.4574

>  <SCORE.INTER.VDW>
-24.4504

>  <SCORE.INTER.norm>
-0.42785

>  <SCORE.INTRA>
-4.37395

>  <SCORE.INTRA.DIHEDRAL>
-8.91541

>  <SCORE.INTRA.DIHEDRAL.0>
15.8194

>  <SCORE.INTRA.POLAR>
0

>  <SCORE.INTRA.POLAR.0>
0

>  <SCORE.INTRA.REPUL>
0

>  <SCORE.INTRA.REPUL.0>
0

>  <SCORE.INTRA.SOLV>
-0.508723

>  <SCORE.INTRA.SOLV.lig_0>
-71.9159

>  <SCORE.INTRA.VDW>
0.338117

>  <SCORE.INTRA.VDW.0>
-3.53918

>  <SCORE.INTRA.norm>
-0.128646

>  <SCORE.RESTR>
0

>  <SCORE.RESTR.CAVITY>
0

>  <SCORE.RESTR.norm>
0

>  <SCORE.SYSTEM>
0

>  <SCORE.SYSTEM.CONST>
0

>  <SCORE.SYSTEM.DIHEDRAL>
0

>  <SCORE.SYSTEM.SOLV>
0

>  <SCORE.SYSTEM.norm>
0

>  <SCORE.heavy>
34

>  <SCORE.norm>
-0.556495

>  <RMSD>
0.953

$$$$
ligand
 OpenBabel01301917533D
libRbt.so/2013.1/901 2013/11/27
 34 36  0  0  0  0  0  0  0  0999 V2000
   18.2133   27.9983   35.2461 C   0  0  2  0  0  0  0  0  0  0  0  0
   18.7862   27.3548   36.3889 O   0  0  0  0  0  0  0  0  0  0  0  0
   22.5164   27.6599   38.4853 C   0  0  2  0  0  0  0  0  0  0  0  0
   23.9515   27.6231   38.7978 N   0  0  0  0  0  0  0  0  0  0  0  0
   23.9718   30.5414   37.7919 C   0  0  2  0  0  0  0  0  0  0  0  0
   16.6459   27.8987   35.3648 C   0  0  2  0  0  0  0  0  0  0  0  0
   16.1716   28.5374   36.6029 N   0  0  0  0  0  0  0  0  0  0  0  0
   22.1124   26.2489   37.9239 C   0  0  0  0  0  0  0  0  0  0  0  0
   24.1067   31.7624   38.7851 C   0  0  2  0  0  0  0  0  0  0  0  0
   23.8995   31.3358   40.1206 O   0  0  0  0  0  0  0  0  0  0  0  0
   16.1969   26.4067   35.3260 C   0  0  1  0  0  0  0  0  0  0  0  0
   14.7646   26.3110   35.4344 O   0  0  0  0  0  0  0  0  0  0  0  0
   20.5757   26.2832   37.6087 C   0  0  2  0  0  0  0  0  0  0  0  0
   20.1214   24.9721   37.0637 N   0  0  0  0  0  0  0  0  0  0  0  0
   23.0322   32.8426   38.3839 C   0  0  1  0  0  0  0  0  0  0  0  0
   23.0816   33.9995   39.3004 N   0  0  0  0  0  0  0  0  0  0  0  0
   16.7126   25.7762   34.0113 C   0  0  2  0  0  0  0  0  0  0  0  0
   16.3001   24.4072   33.9500 O   0  0  0  0  0  0  0  0  0  0  0  0
   20.2466   27.3995   36.5719 C   0  0  2  0  0  0  0  0  0  0  0  0
   23.2959   33.3010   36.9147 C   0  0  1  0  0  0  0  0  0  0  0  0
   24.5876   33.8972   36.8545 O   0  0  0  0  0  0  0  0  0  0  0  0
   18.2955   25.9118   33.9656 C   0  0  2  0  0  0  0  0  0  0  0  0
   18.7016   27.3329   34.0406 O   0  0  0  0  0  0  0  0  0  0  0  0
   20.7196   28.7691   37.1304 C   0  0  2  0  0  0  0  0  0  0  0  0
   20.4360   29.7665   36.1513 O   0  0  0  0  0  0  0  0  0  0  0  0
   23.2412   32.0513   35.9783 C   0  0  0  0  0  0  0  0  0  0  0  0
   24.2036   31.0101   36.4116 O   0  0  0  0  0  0  0  0  0  0  0  0
   18.9118   25.3072   32.6713 C   0  0  2  0  0  0  0  0  0  0  0  0
   18.1093   25.6828   31.5466 O   0  0  0  0  0  0  0  0  0  0  0  0
   22.2447   28.7863   37.3992 C   0  0  1  0  0  0  0  0  0  0  0  0
   22.5871   30.0915   37.9414 O   0  0  0  0  0  0  0  0  0  0  0  0
   18.9675   23.7961   32.7170 C   0  0  0  0  0  0  0  0  0  0  0  0
   22.2777   34.3395   36.4418 C   0  0  0  0  0  0  0  0  0  0  0  0
   22.0185   33.8068   40.3170 C   0  0  0  0  0  0  0  0  0  0  0  0
  1  2  1  1  0  0  0
  1  6  1  0  0  0  0
  1 23  1  0  0  0  0
  3  4  1  6  0  0  0
  3  8  1  0  0  0  0
  3 30  1  0  0  0  0
  5  9  1  0  0  0  0
  5 27  1  0  0  0  0
  5 31  1  6  0  0  0
  6  7  1  1  0  0  0
  6 11  1  0  0  0  0
  8 13  1  0  0  0  0
  9 10  1  1  0  0  0
  9 15  1  0  0  0  0
 11 12  1  6  0  0  0
 11 17  1  0  0  0  0
 13 14  1  6  0  0  0
 13 19  1  0  0  0  0
 15 16  1  1  0  0  0
 15 20  1  0  0  0  0
 16 34  1  0  0  0  0
 17 18  1  1  0  0  0
 17 22  1  0  0  0  0
 19  2  1  1  0  0  0
 19 24  1  0  0  0  0
 20 21  1  6  0  0  0
 20 26  1  0  0  0  0
 20 33  1  0  0  0  0
 22 23  1  6  0  0  0
 22 28  1  0  0  0  0
 24 25  1  6  0  0  0
 24 30  1  0  0  0  0
 26 27  1  0  0  0  0
 28 29  1  6  0  0  0
 28 32  1  0  0  0  0
 30 31  1  1  0  0  0
M  END
>  <CHROM.1>
-175.36232034,-163.19964686,-97.63570720,42.71276563,87.86024625,-165.51643669
20.57803701,28.81029490,36.43806039,2.36365172,0.52223159,-3.07396820

>  <Name>
ligand

>  <RI>
0

>  <Rbt.Current_Directory>
/home/itssahil/PROJECTS/Mol_Feturizer/New_Systems/rnas/4p3s

>  <Rbt.Executable>
rbdock ($Id: //depot/dev/client3/rdock/2013.1/src/exe/rbdock.cxx#4 $)

>  <Rbt.Library>
libRbt.so (2013.1, Build901 2013/11/27)

>  <Rbt.Parameter_File>
/export/apps/rDock/src/rDock_2013.1_src/data/scripts/dock_solv.prm

>  <Rbt.Receptor>
prm/pocket_docking_3.prm

>  <SCORE>
-19.0614

>  <SCORE.INTER>
-14.7954

>  <SCORE.INTER.CONST>
1

>  <SCORE.INTER.POLAR>
0

>  <SCORE.INTER.ROT>
6

>  <SCORE.INTER.SOLV>
20.9061

>  <SCORE.INTER.VDW>
-24.4323

>  <SCORE.INTER.norm>
-0.435159

>  <SCORE.INTRA>
-4.26598

>  <SCORE.INTRA.DIHEDRAL>
-8.34157

>  <SCORE.INTRA.DIHEDRAL.0>
15.8194

>  <SCORE.INTRA.POLAR>
0

>  <SCORE.INTRA.POLAR.0>
0

>  <SCORE.INTRA.REPUL>
0

>  <SCORE.INTRA.REPUL.0>
0

>  <SCORE.INTRA.SOLV>
-0.198083

>  <SCORE.INTRA.SOLV.lig_0>
-71.9159

>  <SCORE.INTRA.VDW>
0.00384859

>  <SCORE.INTRA.VDW.0>
-3.53918

>  <SCORE.INTRA.norm>
-0.12547

>  <SCORE.RESTR>
0

>  <SCORE.RESTR.CAVITY>
0

>  <SCORE.RESTR.norm>
0

>  <SCORE.SYSTEM>
0

>  <SCORE.SYSTEM.CONST>
0

>  <SCORE.SYSTEM.DIHEDRAL>
0

>  <SCORE.SYSTEM.SOLV>
0

>  <SCORE.SYSTEM.norm>
0

>  <SCORE.heavy>
34

>  <SCORE.norm>
-0.560629

>  <RMSD>
0.953

$$$$
ligand
 OpenBabel01301917533D
libRbt.so/2013.1/901 2013/11/27
 34 36  0  0  0  0  0  0  0  0999 V2000
   18.1743   28.0582   35.0483 C   0  0  2  0  0  0  0  0  0  0  0  0
   18.7171   27.3556   36.1708 O   0  0  0  0  0  0  0  0  0  0  0  0
   22.3856   27.6592   38.3736 C   0  0  2  0  0  0  0  0  0  0  0  0
   23.8105   27.6163   38.7289 N   0  0  0  0  0  0  0  0  0  0  0  0
   23.8867   30.5108   37.7180 C   0  0  2  0  0  0  0  0  0  0  0  0
   16.6488   28.3277   35.3327 C   0  0  2  0  0  0  0  0  0  0  0  0
   16.4756   29.1170   36.5627 N   0  0  0  0  0  0  0  0  0  0  0  0
   21.9886   26.2448   37.8160 C   0  0  0  0  0  0  0  0  0  0  0  0
   23.9993   31.7247   38.7225 C   0  0  2  0  0  0  0  0  0  0  0  0
   23.7273   31.2957   40.0456 O   0  0  0  0  0  0  0  0  0  0  0  0
   15.8764   26.9790   35.4487 C   0  0  1  0  0  0  0  0  0  0  0  0
   14.4813   27.2208   35.7088 O   0  0  0  0  0  0  0  0  0  0  0  0
   20.4621   26.2858   37.4550 C   0  0  2  0  0  0  0  0  0  0  0  0
   20.0149   24.9717   36.9112 N   0  0  0  0  0  0  0  0  0  0  0  0
   22.9616   32.8250   38.2811 C   0  0  1  0  0  0  0  0  0  0  0  0
   22.9909   33.9767   39.2049 N   0  0  0  0  0  0  0  0  0  0  0  0
   16.0826   26.1845   34.1379 C   0  0  2  0  0  0  0  0  0  0  0  0
   15.3703   24.9460   34.2189 O   0  0  0  0  0  0  0  0  0  0  0  0
   20.1717   27.3926   36.3966 C   0  0  2  0  0  0  0  0  0  0  0  0
   23.2963   33.2855   36.8271 C   0  0  1  0  0  0  0  0  0  0  0  0
   24.5992   33.8597   36.8258 O   0  0  0  0  0  0  0  0  0  0  0  0
   17.6396   25.9499   33.9217 C   0  0  2  0  0  0  0  0  0  0  0  0
   18.3588   27.2413   33.8511 O   0  0  0  0  0  0  0  0  0  0  0  0
   20.6376   28.7652   36.9538 C   0  0  2  0  0  0  0  0  0  0  0  0
   20.3901   29.7533   35.9557 O   0  0  0  0  0  0  0  0  0  0  0  0
   23.2610   32.0413   35.8826 C   0  0  0  0  0  0  0  0  0  0  0  0
   24.1860   30.9818   36.3515 O   0  0  0  0  0  0  0  0  0  0  0  0
   17.9513   25.1584   32.6191 C   0  0  2  0  0  0  0  0  0  0  0  0
   17.2087   23.9341   32.6218 O   0  0  0  0  0  0  0  0  0  0  0  0
   22.1541   28.7751   37.2675 C   0  0  1  0  0  0  0  0  0  0  0  0
   22.4895   30.0840   37.8052 O   0  0  0  0  0  0  0  0  0  0  0  0
   19.4186   24.8103   32.4994 C   0  0  0  0  0  0  0  0  0  0  0  0
   22.3172   34.3435   36.3162 C   0  0  0  0  0  0  0  0  0  0  0  0
   21.8978   33.7847   40.1894 C   0  0  0  0  0  0  0  0  0  0  0  0
  1  2  1  1  0  0  0
  1  6  1  0  0  0  0
  1 23  1  0  0  0  0
  3  4  1  6  0  0  0
  3  8  1  0  0  0  0
  3 30  1  0  0  0  0
  5  9  1  0  0  0  0
  5 27  1  0  0  0  0
  5 31  1  6  0  0  0
  6  7  1  1  0  0  0
  6 11  1  0  0  0  0
  8 13  1  0  0  0  0
  9 10  1  1  0  0  0
  9 15  1  0  0  0  0
 11 12  1  6  0  0  0
 11 17  1  0  0  0  0
 13 14  1  6  0  0  0
 13 19  1  0  0  0  0
 15 16  1  1  0  0  0
 15 20  1  0  0  0  0
 16 34  1  0  0  0  0
 17 18  1  1  0  0  0
 17 22  1  0  0  0  0
 19  2  1  1  0  0  0
 19 24  1  0  0  0  0
 20 21  1  6  0  0  0
 20 26  1  0  0  0  0
 20 33  1  0  0  0  0
 22 23  1  6  0  0  0
 22 28  1  0  0  0  0
 24 25  1  6  0  0  0
 24 30  1  0  0  0  0
 26 27  1  0  0  0  0
 28 29  1  1  0  0  0
 28 32  1  0  0  0  0
 30 31  1  1  0  0  0
M  END
>  <CHROM.1>
-158.59267538,-166.92616343,-96.58364064,-54.25331733,86.56902148,-164.23164733
20.40089365,28.87300407,36.39998164,2.34780812,0.38833918,-2.97148505

>  <Name>
ligand

>  <RI>
0

>  <Rbt.Current_Directory>
/home/itssahil/PROJECTS/Mol_Feturizer/New_Systems/rnas/4p3s

>  <Rbt.Executable>
rbdock ($Id: //depot/dev/client3/rdock/2013.1/src/exe/rbdock.cxx#4 $)

>  <Rbt.Library>
libRbt.so (2013.1, Build901 2013/11/27)

>  <Rbt.Parameter_File>
/export/apps/rDock/src/rDock_2013.1_src/data/scripts/dock_solv.prm

>  <Rbt.Receptor>
prm/pocket_docking_3.prm

>  <SCORE>
-19.1915

>  <SCORE.INTER>
-15.3618

>  <SCORE.INTER.CONST>
1

>  <SCORE.INTER.POLAR>
0

>  <SCORE.INTER.ROT>
6

>  <SCORE.INTER.SOLV>
19.9735

>  <SCORE.INTER.VDW>
-24.499

>  <SCORE.INTER.norm>
-0.451817

>  <SCORE.INTRA>
-3.82973

>  <SCORE.INTRA.DIHEDRAL>
-7.87476

>  <SCORE.INTRA.DIHEDRAL.0>
15.8194

>  <SCORE.INTRA.POLAR>
0

>  <SCORE.INTRA.POLAR.0>
0

>  <SCORE.INTRA.REPUL>
0

>  <SCORE.INTRA.REPUL.0>
0

>  <SCORE.INTRA.SOLV>
0.0686581

>  <SCORE.INTRA.SOLV.lig_0>
-71.9159

>  <SCORE.INTRA.VDW>
0.0733248

>  <SCORE.INTRA.VDW.0>
-3.53918

>  <SCORE.INTRA.norm>
-0.112639

>  <SCORE.RESTR>
0

>  <SCORE.RESTR.CAVITY>
0

>  <SCORE.RESTR.norm>
0

>  <SCORE.SYSTEM>
0

>  <SCORE.SYSTEM.CONST>
0

>  <SCORE.SYSTEM.DIHEDRAL>
0

>  <SCORE.SYSTEM.SOLV>
0

>  <SCORE.SYSTEM.norm>
0

>  <SCORE.heavy>
34

>  <SCORE.norm>
-0.564457

>  <RMSD>
0.953

$$$$
ligand
 OpenBabel01301917533D
libRbt.so/2013.1/901 2013/11/27
 34 36  0  0  0  0  0  0  0  0999 V2000
   18.3136   28.1007   35.3382 C   0  0  2  0  0  0  0  0  0  0  0  0
   18.8766   27.4357   36.4735 O   0  0  0  0  0  0  0  0  0  0  0  0
   22.6195   27.6748   38.5556 C   0  0  2  0  0  0  0  0  0  0  0  0
   24.0544   27.6074   38.8642 N   0  0  0  0  0  0  0  0  0  0  0  0
   24.1272   30.5363   37.7803 C   0  0  2  0  0  0  0  0  0  0  0  0
   16.7449   28.0235   35.4557 C   0  0  2  0  0  0  0  0  0  0  0  0
   16.2801   28.6553   36.7010 N   0  0  0  0  0  0  0  0  0  0  0  0
   22.1806   26.2679   38.0105 C   0  0  0  0  0  0  0  0  0  0  0  0
   24.3099   31.7610   38.7611 C   0  0  2  0  0  0  0  0  0  0  0  0
   24.1513   31.3426   40.1058 O   0  0  0  0  0  0  0  0  0  0  0  0
   16.2734   26.5390   35.4000 C   0  0  1  0  0  0  0  0  0  0  0  0
   14.8398   26.4638   35.5072 O   0  0  0  0  0  0  0  0  0  0  0  0
   20.6441   26.3352   37.6995 C   0  0  2  0  0  0  0  0  0  0  0  0
   20.1573   25.0295   37.1699 N   0  0  0  0  0  0  0  0  0  0  0  0
   23.2291   32.8477   38.3962 C   0  0  1  0  0  0  0  0  0  0  0  0
   23.3228   34.0087   39.3040 N   0  0  0  0  0  0  0  0  0  0  0  0
   16.7797   25.9157   34.0782 C   0  0  2  0  0  0  0  0  0  0  0  0
   16.3466   24.5540   34.0013 O   0  0  0  0  0  0  0  0  0  0  0  0
   20.3382   27.4479   36.6518 C   0  0  2  0  0  0  0  0  0  0  0  0
   23.4392   33.2969   36.9155 C   0  0  1  0  0  0  0  0  0  0  0  0
   24.7321   33.8825   36.8023 O   0  0  0  0  0  0  0  0  0  0  0  0
   18.3645   26.0279   34.0340 C   0  0  2  0  0  0  0  0  0  0  0  0
   18.7920   27.4417   34.1251 O   0  0  0  0  0  0  0  0  0  0  0  0
   20.8451   28.8118   37.1942 C   0  0  2  0  0  0  0  0  0  0  0  0
   20.5820   29.8051   36.2054 O   0  0  0  0  0  0  0  0  0  0  0  0
   23.3387   32.0431   35.9884 C   0  0  0  0  0  0  0  0  0  0  0  0
   24.3091   30.9965   36.3896 O   0  0  0  0  0  0  0  0  0  0  0  0
   18.9718   25.4287   32.7330 C   0  0  2  0  0  0  0  0  0  0  0  0
   18.1891   25.8488   31.6101 O   0  0  0  0  0  0  0  0  0  0  0  0
   22.3710   28.7957   37.4583 C   0  0  1  0  0  0  0  0  0  0  0  0
   22.7459   30.0981   37.9855 O   0  0  0  0  0  0  0  0  0  0  0  0
   18.9820   23.9160   32.7512 C   0  0  0  0  0  0  0  0  0  0  0  0
   22.4115   34.3411   36.4769 C   0  0  0  0  0  0  0  0  0  0  0  0
   22.3472   33.7950   40.4010 C   0  0  0  0  0  0  0  0  0  0  0  0
  1  2  1  1  0  0  0
  1  6  1  0  0  0  0
  1 23  1  0  0  0  0
  3  4  1  6  0  0  0
  3  8  1  0  0  0  0
  3 30  1  0  0  0  0
  5  9  1  0  0  0  0
  5 27  1  0  0  0  0
  5 31  1  6  0  0  0
  6  7  1  1  0  0  0
  6 11  1  0  0  0  0
  8 13  1  0  0  0  0
  9 10  1  1  0  0  0
  9 15  1  0  0  0  0
 11 12  1  6  0  0  0
 11 17  1  0  0  0  0
 13 14  1  6  0  0  0
 13 19  1  0  0  0  0
 15 16  1  1  0  0  0
 15 20  1  0  0  0  0
 16 34  1  0  0  0  0
 17 18  1  1  0  0  0
 17 22  1  0  0  0  0
 19  2  1  1  0  0  0
 19 24  1  0  0  0  0
 20 21  1  6  0  0  0
 20 26  1  0  0  0  0
 20 33  1  0  0  0  0
 22 23  1  6  0  0  0
 22 28  1  0  0  0  0
 24 25  1  6  0  0  0
 24 30  1  0  0  0  0
 26 27  1  0  0  0  0
 28 29  1  6  0  0  0
 28 32  1  0  0  0  0
 30 31  1  1  0  0  0
M  END
>  <CHROM.1>
-175.80458248,-164.29456193,-94.74322788,43.73333382,90.23075076,-165.79446703
20.69626791,28.86557981,36.48710998,2.40574698,0.54875697,-3.12497001

>  <Name>
ligand

>  <RI>
0

>  <Rbt.Current_Directory>
/home/itssahil/PROJECTS/Mol_Feturizer/New_Systems/rnas/4p3s

>  <Rbt.Executable>
rbdock ($Id: //depot/dev/client3/rdock/2013.1/src/exe/rbdock.cxx#4 $)

>  <Rbt.Library>
libRbt.so (2013.1, Build901 2013/11/27)

>  <Rbt.Parameter_File>
/export/apps/rDock/src/rDock_2013.1_src/data/scripts/dock_solv.prm

>  <Rbt.Receptor>
prm/pocket_docking_4.prm

>  <SCORE>
-19.2287

>  <SCORE.INTER>
-15.015

>  <SCORE.INTER.CONST>
1

>  <SCORE.INTER.POLAR>
0

>  <SCORE.INTER.ROT>
6

>  <SCORE.INTER.SOLV>
21.3441

>  <SCORE.INTER.VDW>
-24.7247

>  <SCORE.INTER.norm>
-0.441618

>  <SCORE.INTRA>
-4.21369

>  <SCORE.INTRA.DIHEDRAL>
-8.30895

>  <SCORE.INTRA.DIHEDRAL.0>
15.8194

>  <SCORE.INTRA.POLAR>
0

>  <SCORE.INTRA.POLAR.0>
0

>  <SCORE.INTRA.REPUL>
0

>  <SCORE.INTRA.REPUL.0>
0

>  <SCORE.INTRA.SOLV>
-0.339351

>  <SCORE.INTRA.SOLV.lig_0>
-71.9159

>  <SCORE.INTRA.VDW>
0.110465

>  <SCORE.INTRA.VDW.0>
-3.53918

>  <SCORE.INTRA.norm>
-0.123932

>  <SCORE.RESTR>
0

>  <SCORE.RESTR.CAVITY>
0

>  <SCORE.RESTR.norm>
0

>  <SCORE.SYSTEM>
0

>  <SCORE.SYSTEM.CONST>
0

>  <SCORE.SYSTEM.DIHEDRAL>
0

>  <SCORE.SYSTEM.SOLV>
0

>  <SCORE.SYSTEM.norm>
0

>  <SCORE.heavy>
34

>  <SCORE.norm>
-0.56555

>  <RMSD>
0.953

$$$$
ligand
 OpenBabel01301917533D
libRbt.so/2013.1/901 2013/11/27
 34 36  0  0  0  0  0  0  0  0999 V2000
   18.3744   28.1735   35.2642 C   0  0  2  0  0  0  0  0  0  0  0  0
   18.9140   27.5201   36.4175 O   0  0  0  0  0  0  0  0  0  0  0  0
   22.6330   27.6884   38.5488 C   0  0  2  0  0  0  0  0  0  0  0  0
   24.0633   27.6020   38.8737 N   0  0  0  0  0  0  0  0  0  0  0  0
   24.1692   30.5614   37.8124 C   0  0  2  0  0  0  0  0  0  0  0  0
   16.8034   28.1156   35.3609 C   0  0  2  0  0  0  0  0  0  0  0  0
   16.3286   28.7720   36.5896 N   0  0  0  0  0  0  0  0  0  0  0  0
   22.1875   26.2950   37.9751 C   0  0  0  0  0  0  0  0  0  0  0  0
   24.3491   31.7897   38.7893 C   0  0  2  0  0  0  0  0  0  0  0  0
   24.1932   31.3749   40.1355 O   0  0  0  0  0  0  0  0  0  0  0  0
   16.3158   26.6359   35.3217 C   0  0  1  0  0  0  0  0  0  0  0  0
   14.8801   26.5783   35.4100 O   0  0  0  0  0  0  0  0  0  0  0  0
   20.6556   26.3824   37.6466 C   0  0  2  0  0  0  0  0  0  0  0  0
   20.1629   25.0904   37.0895 N   0  0  0  0  0  0  0  0  0  0  0  0
   23.2644   32.8718   38.4222 C   0  0  1  0  0  0  0  0  0  0  0  0
   23.3553   34.0359   39.3264 N   0  0  0  0  0  0  0  0  0  0  0  0
   16.8333   25.9863   34.0169 C   0  0  2  0  0  0  0  0  0  0  0  0
   16.3857   24.6284   33.9552 O   0  0  0  0  0  0  0  0  0  0  0  0
   20.3733   27.5151   36.6137 C   0  0  2  0  0  0  0  0  0  0  0  0
   23.4715   33.3171   36.9399 C   0  0  1  0  0  0  0  0  0  0  0  0
   24.7625   33.9065   36.8236 O   0  0  0  0  0  0  0  0  0  0  0  0
   18.4197   26.0800   33.9932 C   0  0  2  0  0  0  0  0  0  0  0  0
   18.8619   27.4903   34.0683 O   0  0  0  0  0  0  0  0  0  0  0  0
   20.8865   28.8649   37.1848 C   0  0  2  0  0  0  0  0  0  0  0  0
   20.6452   29.8768   36.2094 O   0  0  0  0  0  0  0  0  0  0  0  0
   23.3740   32.0602   36.0168 C   0  0  0  0  0  0  0  0  0  0  0  0
   24.3482   31.0179   36.4201 O   0  0  0  0  0  0  0  0  0  0  0  0
   19.0380   25.4538   32.7103 C   0  0  2  0  0  0  0  0  0  0  0  0
   18.2642   25.8491   31.5723 O   0  0  0  0  0  0  0  0  0  0  0  0
   22.4088   28.8296   37.4672 C   0  0  1  0  0  0  0  0  0  0  0  0
   22.7896   30.1194   38.0204 O   0  0  0  0  0  0  0  0  0  0  0  0
   19.0491   23.9418   32.7608 C   0  0  0  0  0  0  0  0  0  0  0  0
   22.4400   34.3567   36.4993 C   0  0  0  0  0  0  0  0  0  0  0  0
   22.3514   33.8431   40.4014 C   0  0  0  0  0  0  0  0  0  0  0  0
  1  2  1  1  0  0  0
  1  6  1  0  0  0  0
  1 23  1  0  0  0  0
  3  4  1  6  0  0  0
  3  8  1  0  0  0  0
  3 30  1  0  0  0  0
  5  9  1  0  0  0  0
  5 27  1  0  0  0  0
  5 31  1  6  0  0  0
  6  7  1  1  0  0  0
  6 11  1  0  0  0  0
  8 13  1  0  0  0  0
  9 10  1  1  0  0  0
  9 15  1  0  0  0  0
 11 12  1  6  0  0  0
 11 17  1  0  0  0  0
 13 14  1  6  0  0  0
 13 19  1  0  0  0  0
 15 16  1  1  0  0  0
 15 20  1  0  0  0  0
 16 34  1  0  0  0  0
 17 18  1  1  0  0  0
 17 22  1  0  0  0  0
 19  2  1  1  0  0  0
 19 24  1  0  0  0  0
 20 21  1  6  0  0  0
 20 26  1  0  0  0  0
 20 33  1  0  0  0  0
 22 23  1  6  0  0  0
 22 28  1  0  0  0  0
 24 25  1  6  0  0  0
 24 30  1  0  0  0  0
 26 27  1  0  0  0  0
 28 29  1  6  0  0  0
 28 32  1  0  0  0  0
 30 31  1  1  0  0  0
M  END
>  <CHROM.1>
-175.99569513,-162.36562980,-96.50806611,42.90003349,91.61710821,-167.36371261
20.73601136,28.91115377,36.46780119,2.39716040,0.54201540,-3.10027138

>  <Name>
ligand

>  <RI>
0

>  <Rbt.Current_Directory>
/home/itssahil/PROJECTS/Mol_Feturizer/New_Systems/rnas/4p3s

>  <Rbt.Executable>
rbdock ($Id: //depot/dev/client3/rdock/2013.1/src/exe/rbdock.cxx#4 $)

>  <Rbt.Library>
libRbt.so (2013.1, Build901 2013/11/27)

>  <Rbt.Parameter_File>
/export/apps/rDock/src/rDock_2013.1_src/data/scripts/dock_solv.prm

>  <Rbt.Receptor>
prm/pocket_docking_4.prm

>  <SCORE>
-19.1875

>  <SCORE.INTER>
-15.0945

>  <SCORE.INTER.CONST>
1

>  <SCORE.INTER.POLAR>
0

>  <SCORE.INTER.ROT>
6

>  <SCORE.INTER.SOLV>
21.3002

>  <SCORE.INTER.VDW>
-24.7631

>  <SCORE.INTER.norm>
-0.443956

>  <SCORE.INTRA>
-4.09297

>  <SCORE.INTRA.DIHEDRAL>
-7.83054

>  <SCORE.INTRA.DIHEDRAL.0>
15.8194

>  <SCORE.INTRA.POLAR>
0

>  <SCORE.INTRA.POLAR.0>
0

>  <SCORE.INTRA.REPUL>
0

>  <SCORE.INTRA.REPUL.0>
0

>  <SCORE.INTRA.SOLV>
-0.230268

>  <SCORE.INTRA.SOLV.lig_0>
-71.9159

>  <SCORE.INTRA.VDW>
-0.0625652

>  <SCORE.INTRA.VDW.0>
-3.53918

>  <SCORE.INTRA.norm>
-0.120381

>  <SCORE.RESTR>
0

>  <SCORE.RESTR.CAVITY>
0

>  <SCORE.RESTR.norm>
0

>  <SCORE.SYSTEM>
0

>  <SCORE.SYSTEM.CONST>
0

>  <SCORE.SYSTEM.DIHEDRAL>
0

>  <SCORE.SYSTEM.SOLV>
0

>  <SCORE.SYSTEM.norm>
0

>  <SCORE.heavy>
34

>  <SCORE.norm>
-0.564337

>  <RMSD>
0.953

$$$$
ligand
 OpenBabel01301917533D
libRbt.so/2013.1/901 2013/11/27
 34 36  0  0  0  0  0  0  0  0999 V2000
   18.1797   28.0193   35.1909 C   0  0  2  0  0  0  0  0  0  0  0  0
   18.7442   27.4121   36.3575 O   0  0  0  0  0  0  0  0  0  0  0  0
   22.4861   27.6716   38.4390 C   0  0  2  0  0  0  0  0  0  0  0  0
   23.9217   27.6155   38.7463 N   0  0  0  0  0  0  0  0  0  0  0  0
   23.9867   30.5158   37.7584 C   0  0  2  0  0  0  0  0  0  0  0  0
   16.6119   27.9094   35.2937 C   0  0  2  0  0  0  0  0  0  0  0  0
   16.1174   28.5775   36.5082 N   0  0  0  0  0  0  0  0  0  0  0  0
   22.0601   26.2645   37.8842 C   0  0  0  0  0  0  0  0  0  0  0  0
   24.1333   31.7399   38.7461 C   0  0  2  0  0  0  0  0  0  0  0  0
   23.8924   31.3273   40.0804 O   0  0  0  0  0  0  0  0  0  0  0  0
   16.1758   26.4131   35.2904 C   0  0  1  0  0  0  0  0  0  0  0  0
   14.7432   26.3080   35.3844 O   0  0  0  0  0  0  0  0  0  0  0  0
   20.5227   26.3195   37.5746 C   0  0  2  0  0  0  0  0  0  0  0  0
   20.0479   25.0131   37.0360 N   0  0  0  0  0  0  0  0  0  0  0  0
   23.0921   32.8426   38.3191 C   0  0  1  0  0  0  0  0  0  0  0  0
   23.1529   34.0042   39.2290 N   0  0  0  0  0  0  0  0  0  0  0  0
   16.7126   25.7515   33.9995 C   0  0  2  0  0  0  0  0  0  0  0  0
   16.3122   24.3779   33.9707 O   0  0  0  0  0  0  0  0  0  0  0  0
   20.2057   27.4367   36.5350 C   0  0  2  0  0  0  0  0  0  0  0  0
   23.3925   33.2848   36.8519 C   0  0  1  0  0  0  0  0  0  0  0  0
   24.6989   33.8497   36.8110 O   0  0  0  0  0  0  0  0  0  0  0  0
   18.2947   25.8995   33.9688 C   0  0  2  0  0  0  0  0  0  0  0  0
   18.6880   27.3256   34.0098 O   0  0  0  0  0  0  0  0  0  0  0  0
   20.7002   28.8014   37.0867 C   0  0  2  0  0  0  0  0  0  0  0  0
   20.4271   29.7992   36.1051 O   0  0  0  0  0  0  0  0  0  0  0  0
   23.3245   32.0305   35.9226 C   0  0  0  0  0  0  0  0  0  0  0  0
   24.2540   30.9697   36.3795 O   0  0  0  0  0  0  0  0  0  0  0  0
   18.9316   25.2652   32.6990 C   0  0  2  0  0  0  0  0  0  0  0  0
   18.0928   25.5286   31.5688 O   0  0  0  0  0  0  0  0  0  0  0  0
   22.2264   28.7979   37.3499 C   0  0  1  0  0  0  0  0  0  0  0  0
   22.5893   30.0999   37.8861 O   0  0  0  0  0  0  0  0  0  0  0  0
   19.0832   23.7652   32.8243 C   0  0  0  0  0  0  0  0  0  0  0  0
   22.4078   34.3440   36.3545 C   0  0  0  0  0  0  0  0  0  0  0  0
   22.1057   33.8144   40.2625 C   0  0  0  0  0  0  0  0  0  0  0  0
  1  2  1  1  0  0  0
  1  6  1  0  0  0  0
  1 23  1  0  0  0  0
  3  4  1  6  0  0  0
  3  8  1  0  0  0  0
  3 30  1  0  0  0  0
  5  9  1  0  0  0  0
  5 27  1  0  0  0  0
  5 31  1  6  0  0  0
  6  7  1  1  0  0  0
  6 11  1  0  0  0  0
  8 13  1  0  0  0  0
  9 10  1  1  0  0  0
  9 15  1  0  0  0  0
 11 12  1  6  0  0  0
 11 17  1  0  0  0  0
 13 14  1  6  0  0  0
 13 19  1  0  0  0  0
 15 16  1  1  0  0  0
 15 20  1  0  0  0  0
 16 34  1  0  0  0  0
 17 18  1  1  0  0  0
 17 22  1  0  0  0  0
 19  2  1  1  0  0  0
 19 24  1  0  0  0  0
 20 21  1  6  0  0  0
 20 26  1  0  0  0  0
 20 33  1  0  0  0  0
 22 23  1  6  0  0  0
 22 28  1  0  0  0  0
 24 25  1  6  0  0  0
 24 30  1  0  0  0  0
 26 27  1  0  0  0  0
 28 29  1  6  0  0  0
 28 32  1  0  0  0  0
 30 31  1  1  0  0  0
M  END
>  <CHROM.1>
-177.29801817,-161.05848470,-95.23610150,38.93238323,86.42816322,-165.32608896
20.58789047,28.80614058,36.40286027,2.35823073,0.49710413,-3.05960030

>  <Name>
ligand

>  <RI>
0

>  <Rbt.Current_Directory>
/home/itssahil/PROJECTS/Mol_Feturizer/New_Systems/rnas/4p3s

>  <Rbt.Executable>
rbdock ($Id: //depot/dev/client3/rdock/2013.1/src/exe/rbdock.cxx#4 $)

>  <Rbt.Library>
libRbt.so (2013.1, Build901 2013/11/27)

>  <Rbt.Parameter_File>
/export/apps/rDock/src/rDock_2013.1_src/data/scripts/dock_solv.prm

>  <Rbt.Receptor>
prm/pocket_docking_5.prm

>  <SCORE>
-18.9633

>  <SCORE.INTER>
-15.0121

>  <SCORE.INTER.CONST>
1

>  <SCORE.INTER.POLAR>
0

>  <SCORE.INTER.ROT>
6

>  <SCORE.INTER.SOLV>
21.0051

>  <SCORE.INTER.VDW>
-24.6098

>  <SCORE.INTER.norm>
-0.441533

>  <SCORE.INTRA>
-3.95121

>  <SCORE.INTRA.DIHEDRAL>
-7.95093

>  <SCORE.INTRA.DIHEDRAL.0>
15.8194

>  <SCORE.INTRA.POLAR>
0

>  <SCORE.INTRA.POLAR.0>
0

>  <SCORE.INTRA.REPUL>
0

>  <SCORE.INTRA.REPUL.0>
0

>  <SCORE.INTRA.SOLV>
0.105746

>  <SCORE.INTRA.SOLV.lig_0>
-71.9159

>  <SCORE.INTRA.VDW>
-0.0286202

>  <SCORE.INTRA.VDW.0>
-3.53918

>  <SCORE.INTRA.norm>
-0.116212

>  <SCORE.RESTR>
0

>  <SCORE.RESTR.CAVITY>
0

>  <SCORE.RESTR.norm>
0

>  <SCORE.SYSTEM>
0

>  <SCORE.SYSTEM.CONST>
0

>  <SCORE.SYSTEM.DIHEDRAL>
0

>  <SCORE.SYSTEM.SOLV>
0

>  <SCORE.SYSTEM.norm>
0

>  <SCORE.heavy>
34

>  <SCORE.norm>
-0.557745

>  <RMSD>
0.953

$$$$
ligand
 OpenBabel01301917533D
libRbt.so/2013.1/901 2013/11/27
 34 36  0  0  0  0  0  0  0  0999 V2000
   18.2476   28.0910   35.0419 C   0  0  2  0  0  0  0  0  0  0  0  0
   18.7766   27.3836   36.1679 O   0  0  0  0  0  0  0  0  0  0  0  0
   22.4367   27.6734   38.3864 C   0  0  2  0  0  0  0  0  0  0  0  0
   23.8590   27.6170   38.7505 N   0  0  0  0  0  0  0  0  0  0  0  0
   23.9809   30.4912   37.6987 C   0  0  2  0  0  0  0  0  0  0  0  0
   16.7264   28.3873   35.3226 C   0  0  2  0  0  0  0  0  0  0  0  0
   16.5645   29.1841   36.5493 N   0  0  0  0  0  0  0  0  0  0  0  0
   22.0236   26.2556   37.8494 C   0  0  0  0  0  0  0  0  0  0  0  0
   24.1140   31.6879   38.7212 C   0  0  2  0  0  0  0  0  0  0  0  0
   23.8347   31.2437   40.0378 O   0  0  0  0  0  0  0  0  0  0  0  0
   15.9311   27.0523   35.4423 C   0  0  1  0  0  0  0  0  0  0  0  0
   14.5399   27.3186   35.6991 O   0  0  0  0  0  0  0  0  0  0  0  0
   20.4998   26.3113   37.4790 C   0  0  2  0  0  0  0  0  0  0  0  0
   20.0379   24.9948   36.9539 N   0  0  0  0  0  0  0  0  0  0  0  0
   23.0952   32.8122   38.2965 C   0  0  1  0  0  0  0  0  0  0  0  0
   23.1440   33.9493   39.2375 N   0  0  0  0  0  0  0  0  0  0  0  0
   16.1261   26.2496   34.1348 C   0  0  2  0  0  0  0  0  0  0  0  0
   15.3929   25.0235   34.2191 O   0  0  0  0  0  0  0  0  0  0  0  0
   20.2303   27.4047   36.4014 C   0  0  2  0  0  0  0  0  0  0  0  0
   23.4378   33.2887   36.8495 C   0  0  1  0  0  0  0  0  0  0  0  0
   24.7503   33.8406   36.8566 O   0  0  0  0  0  0  0  0  0  0  0  0
   17.6793   25.9878   33.9221 C   0  0  2  0  0  0  0  0  0  0  0  0
   18.4203   27.2667   33.8480 O   0  0  0  0  0  0  0  0  0  0  0  0
   20.7117   28.7797   36.9390 C   0  0  2  0  0  0  0  0  0  0  0  0
   20.4831   29.7549   35.9239 O   0  0  0  0  0  0  0  0  0  0  0  0
   23.3814   32.0595   35.8865 C   0  0  0  0  0  0  0  0  0  0  0  0
   24.2882   30.9775   36.3393 O   0  0  0  0  0  0  0  0  0  0  0  0
   17.9798   25.1863   32.6230 C   0  0  2  0  0  0  0  0  0  0  0  0
   17.2096   23.9793   32.6246 O   0  0  0  0  0  0  0  0  0  0  0  0
   22.2265   28.7743   37.2612 C   0  0  1  0  0  0  0  0  0  0  0  0
   22.5766   30.0870   37.7798 O   0  0  0  0  0  0  0  0  0  0  0  0
   19.4394   24.8047   32.5119 C   0  0  0  0  0  0  0  0  0  0  0  0
   22.4768   34.3707   36.3547 C   0  0  0  0  0  0  0  0  0  0  0  0
   22.0364   33.7707   40.2082 C   0  0  0  0  0  0  0  0  0  0  0  0
  1  2  1  1  0  0  0
  1  6  1  0  0  0  0
  1 23  1  0  0  0  0
  3  4  1  6  0  0  0
  3  8  1  0  0  0  0
  3 30  1  0  0  0  0
  5  9  1  0  0  0  0
  5 27  1  0  0  0  0
  5 31  1  6  0  0  0
  6  7  1  1  0  0  0
  6 11  1  0  0  0  0
  8 13  1  0  0  0  0
  9 10  1  1  0  0  0
  9 15  1  0  0  0  0
 11 12  1  6  0  0  0
 11 17  1  0  0  0  0
 13 14  1  6  0  0  0
 13 19  1  0  0  0  0
 15 16  1  1  0  0  0
 15 20  1  0  0  0  0
 16 34  1  0  0  0  0
 17 18  1  1  0  0  0
 17 22  1  0  0  0  0
 19  2  1  1  0  0  0
 19 24  1  0  0  0  0
 20 21  1  6  0  0  0
 20 26  1  0  0  0  0
 20 33  1  0  0  0  0
 22 23  1  6  0  0  0
 22 28  1  0  0  0  0
 24 25  1  6  0  0  0
 24 30  1  0  0  0  0
 26 27  1  0  0  0  0
 28 29  1  1  0  0  0
 28 32  1  0  0  0  0
 30 31  1  1  0  0  0
M  END
>  <CHROM.1>
-158.17496192,-167.80204387,-97.33440061,-53.85117481,86.32337325,-162.30953201
20.47821796,28.89060857,36.40408442,2.36213557,0.39578739,-2.98189726

>  <Name>
ligand

>  <RI>
0

>  <Rbt.Current_Directory>
/home/itssahil/PROJECTS/Mol_Feturizer/New_Systems/rnas/4p3s

>  <Rbt.Executable>
rbdock ($Id: //depot/dev/client3/rdock/2013.1/src/exe/rbdock.cxx#4 $)

>  <Rbt.Library>
libRbt.so (2013.1, Build901 2013/11/27)

>  <Rbt.Parameter_File>
/export/apps/rDock/src/rDock_2013.1_src/data/scripts/dock_solv.prm

>  <Rbt.Receptor>
prm/pocket_docking_4.prm

>  <SCORE>
-19.2749

>  <SCORE.INTER>
-15.5922

>  <SCORE.INTER.CONST>
1

>  <SCORE.INTER.POLAR>
0

>  <SCORE.INTER.ROT>
6

>  <SCORE.INTER.SOLV>
20.3408

>  <SCORE.INTER.VDW>
-24.775

>  <SCORE.INTER.norm>
-0.458594

>  <SCORE.INTRA>
-3.68274

>  <SCORE.INTRA.DIHEDRAL>
-7.63323

>  <SCORE.INTRA.DIHEDRAL.0>
15.8194

>  <SCORE.INTRA.POLAR>
0

>  <SCORE.INTRA.POLAR.0>
0

>  <SCORE.INTRA.REPUL>
0

>  <SCORE.INTRA.REPUL.0>
0

>  <SCORE.INTRA.SOLV>
0.0778115

>  <SCORE.INTRA.SOLV.lig_0>
-71.9159

>  <SCORE.INTRA.VDW>
0.0949737

>  <SCORE.INTRA.VDW.0>
-3.53918

>  <SCORE.INTRA.norm>
-0.108316

>  <SCORE.RESTR>
0

>  <SCORE.RESTR.CAVITY>
0

>  <SCORE.RESTR.norm>
0

>  <SCORE.SYSTEM>
0

>  <SCORE.SYSTEM.CONST>
0

>  <SCORE.SYSTEM.DIHEDRAL>
0

>  <SCORE.SYSTEM.SOLV>
0

>  <SCORE.SYSTEM.norm>
0

>  <SCORE.heavy>
34

>  <SCORE.norm>
-0.56691

>  <RMSD>
0.955

$$$$
ligand
 OpenBabel01301917533D
libRbt.so/2013.1/901 2013/11/27
 34 36  0  0  0  0  0  0  0  0999 V2000
   18.2279   28.1347   35.0808 C   0  0  2  0  0  0  0  0  0  0  0  0
   18.7621   27.4456   36.2157 O   0  0  0  0  0  0  0  0  0  0  0  0
   22.4490   27.6567   38.3984 C   0  0  2  0  0  0  0  0  0  0  0  0
   23.8753   27.5854   38.7436 N   0  0  0  0  0  0  0  0  0  0  0  0
   23.9901   30.4979   37.7655 C   0  0  2  0  0  0  0  0  0  0  0  0
   16.7004   28.4080   35.3505 C   0  0  2  0  0  0  0  0  0  0  0  0
   16.5183   29.2122   36.5696 N   0  0  0  0  0  0  0  0  0  0  0  0
   22.0254   26.2574   37.8225 C   0  0  0  0  0  0  0  0  0  0  0  0
   24.1255   31.7123   38.7666 C   0  0  2  0  0  0  0  0  0  0  0  0
   23.8600   31.2889   40.0928 O   0  0  0  0  0  0  0  0  0  0  0  0
   15.9266   27.0610   35.4771 C   0  0  1  0  0  0  0  0  0  0  0  0
   14.5298   27.3063   35.7239 O   0  0  0  0  0  0  0  0  0  0  0  0
   20.4975   26.3286   37.4722 C   0  0  2  0  0  0  0  0  0  0  0  0
   20.0256   25.0302   36.9119 N   0  0  0  0  0  0  0  0  0  0  0  0
   23.0971   32.8239   38.3320 C   0  0  1  0  0  0  0  0  0  0  0  0
   23.1478   33.9769   39.2533 N   0  0  0  0  0  0  0  0  0  0  0  0
   16.1423   26.2507   34.1775 C   0  0  2  0  0  0  0  0  0  0  0  0
   15.4291   25.0134   34.2682 O   0  0  0  0  0  0  0  0  0  0  0  0
   20.2185   27.4556   36.4324 C   0  0  2  0  0  0  0  0  0  0  0  0
   23.4246   33.2778   36.8743 C   0  0  1  0  0  0  0  0  0  0  0  0
   24.7342   33.8366   36.8607 O   0  0  0  0  0  0  0  0  0  0  0  0
   17.7008   26.0130   33.9758 C   0  0  2  0  0  0  0  0  0  0  0  0
   18.4210   27.3034   33.8950 O   0  0  0  0  0  0  0  0  0  0  0  0
   20.7102   28.8120   37.0068 C   0  0  2  0  0  0  0  0  0  0  0  0
   20.4725   29.8189   36.0252 O   0  0  0  0  0  0  0  0  0  0  0  0
   23.3666   32.0323   35.9325 C   0  0  0  0  0  0  0  0  0  0  0  0
   24.2831   30.9629   36.3955 O   0  0  0  0  0  0  0  0  0  0  0  0
   18.0219   25.2058   32.6852 C   0  0  2  0  0  0  0  0  0  0  0  0
   17.2456   24.0027   32.6759 O   0  0  0  0  0  0  0  0  0  0  0  0
   22.2287   28.7927   37.3106 C   0  0  1  0  0  0  0  0  0  0  0  0
   22.5887   30.0877   37.8655 O   0  0  0  0  0  0  0  0  0  0  0  0
   19.4815   24.8164   32.6032 C   0  0  0  0  0  0  0  0  0  0  0  0
   22.4537   34.3462   36.3698 C   0  0  0  0  0  0  0  0  0  0  0  0
   22.0424   33.8148   40.2294 C   0  0  0  0  0  0  0  0  0  0  0  0
  1  2  1  1  0  0  0
  1  6  1  0  0  0  0
  1 23  1  0  0  0  0
  3  4  1  6  0  0  0
  3  8  1  0  0  0  0
  3 30  1  0  0  0  0
  5  9  1  0  0  0  0
  5 27  1  0  0  0  0
  5 31  1  6  0  0  0
  6  7  1  1  0  0  0
  6 11  1  0  0  0  0
  8 13  1  0  0  0  0
  9 10  1  1  0  0  0
  9 15  1  0  0  0  0
 11 12  1  6  0  0  0
 11 17  1  0  0  0  0
 13 14  1  6  0  0  0
 13 19  1  0  0  0  0
 15 16  1  1  0  0  0
 15 20  1  0  0  0  0
 16 34  1  0  0  0  0
 17 18  1  1  0  0  0
 17 22  1  0  0  0  0
 19  2  1  1  0  0  0
 19 24  1  0  0  0  0
 20 21  1  6  0  0  0
 20 26  1  0  0  0  0
 20 33  1  0  0  0  0
 22 23  1  6  0  0  0
 22 28  1  0  0  0  0
 24 25  1  6  0  0  0
 24 30  1  0  0  0  0
 26 27  1  0  0  0  0
 28 29  1  1  0  0  0
 28 32  1  0  0  0  0
 30 31  1  1  0  0  0
M  END
>  <CHROM.1>
-160.16458530,-164.76163367,-97.80311571,-52.35803328,87.06345457,-165.36286795
20.48033561,28.90572729,36.44125040,2.35688572,0.38223191,-2.96788683

>  <Name>
ligand

>  <RI>
0

>  <Rbt.Current_Directory>
/home/itssahil/PROJECTS/Mol_Feturizer/New_Systems/rnas/4p3s

>  <Rbt.Executable>
rbdock ($Id: //depot/dev/client3/rdock/2013.1/src/exe/rbdock.cxx#4 $)

>  <Rbt.Library>
libRbt.so (2013.1, Build901 2013/11/27)

>  <Rbt.Parameter_File>
/export/apps/rDock/src/rDock_2013.1_src/data/scripts/dock_solv.prm

>  <Rbt.Receptor>
prm/pocket_docking_5.prm

>  <SCORE>
-19.2857

>  <SCORE.INTER>
-15.442

>  <SCORE.INTER.CONST>
1

>  <SCORE.INTER.POLAR>
0

>  <SCORE.INTER.ROT>
6

>  <SCORE.INTER.SOLV>
19.9474

>  <SCORE.INTER.VDW>
-24.5438

>  <SCORE.INTER.norm>
-0.454177

>  <SCORE.INTRA>
-3.84371

>  <SCORE.INTRA.DIHEDRAL>
-7.79182

>  <SCORE.INTRA.DIHEDRAL.0>
15.8194

>  <SCORE.INTRA.POLAR>
0

>  <SCORE.INTRA.POLAR.0>
0

>  <SCORE.INTRA.REPUL>
0

>  <SCORE.INTRA.REPUL.0>
0

>  <SCORE.INTRA.SOLV>
0.139566

>  <SCORE.INTRA.SOLV.lig_0>
-71.9159

>  <SCORE.INTRA.VDW>
-0.0175838

>  <SCORE.INTRA.VDW.0>
-3.53918

>  <SCORE.INTRA.norm>
-0.11305

>  <SCORE.RESTR>
0

>  <SCORE.RESTR.CAVITY>
0

>  <SCORE.RESTR.norm>
0

>  <SCORE.SYSTEM>
0

>  <SCORE.SYSTEM.CONST>
0

>  <SCORE.SYSTEM.DIHEDRAL>
0

>  <SCORE.SYSTEM.SOLV>
0

>  <SCORE.SYSTEM.norm>
0

>  <SCORE.heavy>
34

>  <SCORE.norm>
-0.567227

>  <RMSD>
0.957

$$$$
ligand
 OpenBabel01301917533D
libRbt.so/2013.1/901 2013/11/27
 34 36  0  0  0  0  0  0  0  0999 V2000
   18.2240   28.1663   35.1551 C   0  0  2  0  0  0  0  0  0  0  0  0
   18.7680   27.4678   36.2795 O   0  0  0  0  0  0  0  0  0  0  0  0
   22.4747   27.6641   38.4299 C   0  0  2  0  0  0  0  0  0  0  0  0
   23.9040   27.5896   38.7618 N   0  0  0  0  0  0  0  0  0  0  0  0
   24.0080   30.5177   37.7759 C   0  0  2  0  0  0  0  0  0  0  0  0
   16.7047   28.4584   35.4506 C   0  0  2  0  0  0  0  0  0  0  0  0
   16.5530   29.2619   36.6742 N   0  0  0  0  0  0  0  0  0  0  0  0
   22.0445   26.2682   37.8507 C   0  0  0  0  0  0  0  0  0  0  0  0
   24.1521   31.7469   38.7576 C   0  0  2  0  0  0  0  0  0  0  0  0
   23.9151   31.3397   40.0943 O   0  0  0  0  0  0  0  0  0  0  0  0
   15.9161   27.1210   35.5870 C   0  0  1  0  0  0  0  0  0  0  0  0
   14.5267   27.3834   35.8574 O   0  0  0  0  0  0  0  0  0  0  0  0
   20.5136   26.3427   37.5146 C   0  0  2  0  0  0  0  0  0  0  0  0
   20.0352   25.0477   36.9520 N   0  0  0  0  0  0  0  0  0  0  0  0
   23.1065   32.8440   38.3274 C   0  0  1  0  0  0  0  0  0  0  0  0
   23.1649   34.0100   39.2317 N   0  0  0  0  0  0  0  0  0  0  0  0
   16.1000   26.3111   34.2823 C   0  0  2  0  0  0  0  0  0  0  0  0
   15.3727   25.0827   34.3821 O   0  0  0  0  0  0  0  0  0  0  0  0
   20.2263   27.4753   36.4831 C   0  0  2  0  0  0  0  0  0  0  0  0
   23.4027   33.2803   36.8576 C   0  0  1  0  0  0  0  0  0  0  0  0
   24.7071   33.8495   36.8116 O   0  0  0  0  0  0  0  0  0  0  0  0
   17.6518   26.0541   34.0544 C   0  0  2  0  0  0  0  0  0  0  0  0
   18.3869   27.3354   33.9644 O   0  0  0  0  0  0  0  0  0  0  0  0
   20.7246   28.8282   37.0599 C   0  0  2  0  0  0  0  0  0  0  0  0
   20.4791   29.8403   36.0857 O   0  0  0  0  0  0  0  0  0  0  0  0
   23.3373   32.0215   35.9343 C   0  0  0  0  0  0  0  0  0  0  0  0
   24.2712   30.9660   36.3944 O   0  0  0  0  0  0  0  0  0  0  0  0
   17.9413   25.2459   32.7569 C   0  0  2  0  0  0  0  0  0  0  0  0
   17.1822   24.0320   32.7780 O   0  0  0  0  0  0  0  0  0  0  0  0
   22.2458   28.8059   37.3499 C   0  0  1  0  0  0  0  0  0  0  0  0
   22.6122   30.0977   37.9081 O   0  0  0  0  0  0  0  0  0  0  0  0
   19.4027   24.8766   32.6280 C   0  0  0  0  0  0  0  0  0  0  0  0
   22.4136   34.3339   36.3571 C   0  0  0  0  0  0  0  0  0  0  0  0
   22.0686   33.8613   40.2201 C   0  0  0  0  0  0  0  0  0  0  0  0
  1  2  1  1  0  0  0
  1  6  1  0  0  0  0
  1 23  1  0  0  0  0
  3  4  1  6  0  0  0
  3  8  1  0  0  0  0
  3 30  1  0  0  0  0
  5  9  1  0  0  0  0
  5 27  1  0  0  0  0
  5 31  1  6  0  0  0
  6  7  1  1  0  0  0
  6 11  1  0  0  0  0
  8 13  1  0  0  0  0
  9 10  1  1  0  0  0
  9 15  1  0  0  0  0
 11 12  1  6  0  0  0
 11 17  1  0  0  0  0
 13 14  1  6  0  0  0
 13 19  1  0  0  0  0
 15 16  1  1  0  0  0
 15 20  1  0  0  0  0
 16 34  1  0  0  0  0
 17 18  1  1  0  0  0
 17 22  1  0  0  0  0
 19  2  1  1  0  0  0
 19 24  1  0  0  0  0
 20 21  1  6  0  0  0
 20 26  1  0  0  0  0
 20 33  1  0  0  0  0
 22 23  1  6  0  0  0
 22 28  1  0  0  0  0
 24 25  1  6  0  0  0
 24 30  1  0  0  0  0
 26 27  1  0  0  0  0
 28 29  1  1  0  0  0
 28 32  1  0  0  0  0
 30 31  1  1  0  0  0
M  END
>  <CHROM.1>
-159.28510795,-164.93099993,-98.51230675,-54.20133736,88.14887351,-166.77714795
20.47449082,28.93415104,36.48394069,2.36337257,0.37596689,-2.97520928

>  <Name>
ligand

>  <RI>
0

>  <Rbt.Current_Directory>
/home/itssahil/PROJECTS/Mol_Feturizer/New_Systems/rnas/4p3s

>  <Rbt.Executable>
rbdock ($Id: //depot/dev/client3/rdock/2013.1/src/exe/rbdock.cxx#4 $)

>  <Rbt.Library>
libRbt.so (2013.1, Build901 2013/11/27)

>  <Rbt.Parameter_File>
/export/apps/rDock/src/rDock_2013.1_src/data/scripts/dock_solv.prm

>  <Rbt.Receptor>
prm/pocket_docking_5.prm

>  <SCORE>
-19.2615

>  <SCORE.INTER>
-15.3644

>  <SCORE.INTER.CONST>
1

>  <SCORE.INTER.POLAR>
0

>  <SCORE.INTER.ROT>
6

>  <SCORE.INTER.SOLV>
19.7102

>  <SCORE.INTER.VDW>
-24.413

>  <SCORE.INTER.norm>
-0.451895

>  <SCORE.INTRA>
-3.89707

>  <SCORE.INTRA.DIHEDRAL>
-7.71924

>  <SCORE.INTRA.DIHEDRAL.0>
15.8194

>  <SCORE.INTRA.POLAR>
0

>  <SCORE.INTRA.POLAR.0>
0

>  <SCORE.INTRA.REPUL>
0

>  <SCORE.INTRA.REPUL.0>
0

>  <SCORE.INTRA.SOLV>
0.0842304

>  <SCORE.INTRA.SOLV.lig_0>
-71.9159

>  <SCORE.INTRA.VDW>
-0.0795696

>  <SCORE.INTRA.VDW.0>
-3.53918

>  <SCORE.INTRA.norm>
-0.11462

>  <SCORE.RESTR>
0

>  <SCORE.RESTR.CAVITY>
0

>  <SCORE.RESTR.norm>
0

>  <SCORE.SYSTEM>
0

>  <SCORE.SYSTEM.CONST>
0

>  <SCORE.SYSTEM.DIHEDRAL>
0

>  <SCORE.SYSTEM.SOLV>
0

>  <SCORE.SYSTEM.norm>
0

>  <SCORE.heavy>
34

>  <SCORE.norm>
-0.566514

>  <RMSD>
0.958

$$$$
ligand
 OpenBabel01301917533D
libRbt.so/2013.1/901 2013/11/27
 34 36  0  0  0  0  0  0  0  0999 V2000
   18.2142   28.0400   35.3263 C   0  0  2  0  0  0  0  0  0  0  0  0
   18.8021   27.3904   36.4579 O   0  0  0  0  0  0  0  0  0  0  0  0
   22.5731   27.6530   38.4859 C   0  0  2  0  0  0  0  0  0  0  0  0
   24.0134   27.6021   38.7714 N   0  0  0  0  0  0  0  0  0  0  0  0
   24.0421   30.5227   37.7817 C   0  0  2  0  0  0  0  0  0  0  0  0
   16.6490   27.9175   35.4520 C   0  0  2  0  0  0  0  0  0  0  0  0
   16.1728   28.5344   36.7005 N   0  0  0  0  0  0  0  0  0  0  0  0
   22.1462   26.2482   37.9260 C   0  0  0  0  0  0  0  0  0  0  0  0
   24.2027   31.7437   38.7710 C   0  0  2  0  0  0  0  0  0  0  0  0
   24.0102   31.3209   40.1099 O   0  0  0  0  0  0  0  0  0  0  0  0
   16.2201   26.4201   35.3972 C   0  0  1  0  0  0  0  0  0  0  0  0
   14.7899   26.3035   35.5120 O   0  0  0  0  0  0  0  0  0  0  0  0
   20.6042   26.2976   37.6396 C   0  0  2  0  0  0  0  0  0  0  0  0
   20.1281   24.9930   37.0975 N   0  0  0  0  0  0  0  0  0  0  0  0
   23.1331   32.8336   38.3833 C   0  0  1  0  0  0  0  0  0  0  0  0
   23.2063   33.9913   39.2972 N   0  0  0  0  0  0  0  0  0  0  0  0
   16.7372   25.8129   34.0720 C   0  0  2  0  0  0  0  0  0  0  0  0
   16.3430   24.4393   33.9960 O   0  0  0  0  0  0  0  0  0  0  0  0
   20.2659   27.4214   36.6139 C   0  0  2  0  0  0  0  0  0  0  0  0
   23.3805   33.2874   36.9098 C   0  0  1  0  0  0  0  0  0  0  0  0
   24.6768   33.8711   36.8306 O   0  0  0  0  0  0  0  0  0  0  0  0
   18.3178   25.9707   34.0196 C   0  0  2  0  0  0  0  0  0  0  0  0
   18.7049   27.3962   34.1100 O   0  0  0  0  0  0  0  0  0  0  0  0
   20.7615   28.7842   37.1694 C   0  0  2  0  0  0  0  0  0  0  0  0
   20.4687   29.7884   36.2001 O   0  0  0  0  0  0  0  0  0  0  0  0
   23.3007   32.0370   35.9762 C   0  0  0  0  0  0  0  0  0  0  0  0
   24.2591   30.9873   36.3975 O   0  0  0  0  0  0  0  0  0  0  0  0
   18.9352   25.3906   32.7147 C   0  0  2  0  0  0  0  0  0  0  0  0
   18.1192   25.7655   31.5995 O   0  0  0  0  0  0  0  0  0  0  0  0
   22.2914   28.7866   37.4099 C   0  0  1  0  0  0  0  0  0  0  0  0
   22.6555   30.0862   37.9512 O   0  0  0  0  0  0  0  0  0  0  0  0
   19.0157   23.8801   32.7432 C   0  0  0  0  0  0  0  0  0  0  0  0
   22.3657   34.3350   36.4497 C   0  0  0  0  0  0  0  0  0  0  0  0
   22.1206   33.8380   40.2965 C   0  0  0  0  0  0  0  0  0  0  0  0
  1  2  1  1  0  0  0
  1  6  1  0  0  0  0
  1 23  1  0  0  0  0
  3  4  1  6  0  0  0
  3  8  1  0  0  0  0
  3 30  1  0  0  0  0
  5  9  1  0  0  0  0
  5 27  1  0  0  0  0
  5 31  1  6  0  0  0
  6  7  1  1  0  0  0
  6 11  1  0  0  0  0
  8 13  1  0  0  0  0
  9 10  1  1  0  0  0
  9 15  1  0  0  0  0
 11 12  1  6  0  0  0
 11 17  1  0  0  0  0
 13 14  1  6  0  0  0
 13 19  1  0  0  0  0
 15 16  1  1  0  0  0
 15 20  1  0  0  0  0
 16 34  1  0  0  0  0
 17 18  1  1  0  0  0
 17 22  1  0  0  0  0
 19  2  1  1  0  0  0
 19 24  1  0  0  0  0
 20 21  1  6  0  0  0
 20 26  1  0  0  0  0
 20 33  1  0  0  0  0
 22 23  1  6  0  0  0
 22 28  1  0  0  0  0
 24 25  1  6  0  0  0
 24 30  1  0  0  0  0
 26 27  1  0  0  0  0
 28 29  1  6  0  0  0
 28 32  1  0  0  0  0
 30 31  1  1  0  0  0
M  END
>  <CHROM.1>
-177.02196233,-162.98124461,-99.87408342,42.53424051,87.67044421,-165.82065110
20.62592631,28.82465662,36.46538529,2.37155459,0.50957677,-3.07670990

>  <Name>
ligand

>  <RI>
0

>  <Rbt.Current_Directory>
/home/itssahil/PROJECTS/Mol_Feturizer/New_Systems/rnas/4p3s

>  <Rbt.Executable>
rbdock ($Id: //depot/dev/client3/rdock/2013.1/src/exe/rbdock.cxx#4 $)

>  <Rbt.Library>
libRbt.so (2013.1, Build901 2013/11/27)

>  <Rbt.Parameter_File>
/export/apps/rDock/src/rDock_2013.1_src/data/scripts/dock_solv.prm

>  <Rbt.Receptor>
prm/pocket_docking_4.prm

>  <SCORE>
-19.1653

>  <SCORE.INTER>
-14.838

>  <SCORE.INTER.CONST>
1

>  <SCORE.INTER.POLAR>
0

>  <SCORE.INTER.ROT>
6

>  <SCORE.INTER.SOLV>
21.1948

>  <SCORE.INTER.VDW>
-24.5569

>  <SCORE.INTER.norm>
-0.436411

>  <SCORE.INTRA>
-4.32728

>  <SCORE.INTRA.DIHEDRAL>
-8.3627

>  <SCORE.INTRA.DIHEDRAL.0>
15.8194

>  <SCORE.INTRA.POLAR>
0

>  <SCORE.INTRA.POLAR.0>
0

>  <SCORE.INTRA.REPUL>
0

>  <SCORE.INTRA.REPUL.0>
0

>  <SCORE.INTRA.SOLV>
-0.171343

>  <SCORE.INTRA.SOLV.lig_0>
-71.9159

>  <SCORE.INTRA.VDW>
-0.0602596

>  <SCORE.INTRA.VDW.0>
-3.53918

>  <SCORE.INTRA.norm>
-0.127273

>  <SCORE.RESTR>
0

>  <SCORE.RESTR.CAVITY>
0

>  <SCORE.RESTR.norm>
0

>  <SCORE.SYSTEM>
0

>  <SCORE.SYSTEM.CONST>
0

>  <SCORE.SYSTEM.DIHEDRAL>
0

>  <SCORE.SYSTEM.SOLV>
0

>  <SCORE.SYSTEM.norm>
0

>  <SCORE.heavy>
34

>  <SCORE.norm>
-0.563684

>  <RMSD>
0.964

$$$$
ligand
 OpenBabel01301917533D
libRbt.so/2013.1/901 2013/11/27
 34 36  0  0  0  0  0  0  0  0999 V2000
   18.2298   27.9120   35.1508 C   0  0  2  0  0  0  0  0  0  0  0  0
   18.8008   27.2918   36.3073 O   0  0  0  0  0  0  0  0  0  0  0  0
   22.5171   27.6663   38.4171 C   0  0  2  0  0  0  0  0  0  0  0  0
   23.9506   27.6453   38.7382 N   0  0  0  0  0  0  0  0  0  0  0  0
   23.9723   30.5147   37.7256 C   0  0  2  0  0  0  0  0  0  0  0  0
   16.6623   27.8101   35.2662 C   0  0  2  0  0  0  0  0  0  0  0  0
   16.1821   28.4706   36.4905 N   0  0  0  0  0  0  0  0  0  0  0  0
   22.1249   26.2408   37.8849 C   0  0  0  0  0  0  0  0  0  0  0  0
   24.0927   31.7161   38.7441 C   0  0  2  0  0  0  0  0  0  0  0  0
   23.8327   31.2703   40.0640 O   0  0  0  0  0  0  0  0  0  0  0  0
   16.2177   26.3164   35.2540 C   0  0  1  0  0  0  0  0  0  0  0  0
   14.7854   26.2185   35.3595 O   0  0  0  0  0  0  0  0  0  0  0  0
   20.5897   26.2586   37.5605 C   0  0  2  0  0  0  0  0  0  0  0  0
   20.1465   24.9330   37.0423 N   0  0  0  0  0  0  0  0  0  0  0  0
   23.0503   32.8209   38.3256 C   0  0  1  0  0  0  0  0  0  0  0  0
   23.0867   33.9610   39.2635 N   0  0  0  0  0  0  0  0  0  0  0  0
   16.7396   25.6627   33.9531 C   0  0  2  0  0  0  0  0  0  0  0  0
   16.3312   24.2917   33.9162 O   0  0  0  0  0  0  0  0  0  0  0  0
   20.2598   27.3496   36.4974 C   0  0  2  0  0  0  0  0  0  0  0  0
   23.3719   33.2999   36.8746 C   0  0  1  0  0  0  0  0  0  0  0  0
   24.6743   33.8752   36.8691 O   0  0  0  0  0  0  0  0  0  0  0  0
   18.3223   25.8020   33.9100 C   0  0  2  0  0  0  0  0  0  0  0  0
   18.7240   27.2255   33.9595 O   0  0  0  0  0  0  0  0  0  0  0  0
   20.7214   28.7341   37.0279 C   0  0  2  0  0  0  0  0  0  0  0  0
   20.4373   29.7077   36.0253 O   0  0  0  0  0  0  0  0  0  0  0  0
   23.3293   32.0675   35.9150 C   0  0  0  0  0  0  0  0  0  0  0  0
   24.2592   31.0030   36.3625 O   0  0  0  0  0  0  0  0  0  0  0  0
   18.9445   25.1750   32.6293 C   0  0  2  0  0  0  0  0  0  0  0  0
   18.1035   25.4625   31.5068 O   0  0  0  0  0  0  0  0  0  0  0  0
   22.2448   28.7666   37.3047 C   0  0  1  0  0  0  0  0  0  0  0  0
   22.5762   30.0856   37.8196 O   0  0  0  0  0  0  0  0  0  0  0  0
   19.0776   23.6718   32.7359 C   0  0  0  0  0  0  0  0  0  0  0  0
   22.3875   34.3632   36.3856 C   0  0  0  0  0  0  0  0  0  0  0  0
   21.9160   33.8320   40.1655 C   0  0  0  0  0  0  0  0  0  0  0  0
  1  2  1  1  0  0  0
  1  6  1  0  0  0  0
  1 23  1  0  0  0  0
  3  4  1  6  0  0  0
  3  8  1  0  0  0  0
  3 30  1  0  0  0  0
  5  9  1  0  0  0  0
  5 27  1  0  0  0  0
  5 31  1  6  0  0  0
  6  7  1  1  0  0  0
  6 11  1  0  0  0  0
  8 13  1  0  0  0  0
  9 10  1  1  0  0  0
  9 15  1  0  0  0  0
 11 12  1  6  0  0  0
 11 17  1  0  0  0  0
 13 14  1  6  0  0  0
 13 19  1  0  0  0  0
 15 16  1  1  0  0  0
 15 20  1  0  0  0  0
 16 34  1  0  0  0  0
 17 18  1  1  0  0  0
 17 22  1  0  0  0  0
 19  2  1  1  0  0  0
 19 24  1  0  0  0  0
 20 21  1  6  0  0  0
 20 26  1  0  0  0  0
 20 33  1  0  0  0  0
 22 23  1  6  0  0  0
 22 28  1  0  0  0  0
 24 25  1  6  0  0  0
 24 30  1  0  0  0  0
 26 27  1  0  0  0  0
 28 29  1  6  0  0  0
 28 32  1  0  0  0  0
 30 31  1  1  0  0  0
M  END
>  <CHROM.1>
-175.08433731,-163.50948192,-102.49655197,39.42958842,85.00956641,-162.43418780
20.59728436,28.75694989,36.37377398,2.34381378,0.50067458,-3.05237529

>  <Name>
ligand

>  <RI>
0

>  <Rbt.Current_Directory>
/home/itssahil/PROJECTS/Mol_Feturizer/New_Systems/rnas/4p3s

>  <Rbt.Executable>
rbdock ($Id: //depot/dev/client3/rdock/2013.1/src/exe/rbdock.cxx#4 $)

>  <Rbt.Library>
libRbt.so (2013.1, Build901 2013/11/27)

>  <Rbt.Parameter_File>
/export/apps/rDock/src/rDock_2013.1_src/data/scripts/dock_solv.prm

>  <Rbt.Receptor>
prm/pocket_docking_5.prm

>  <SCORE>
-18.9834

>  <SCORE.INTER>
-14.8454

>  <SCORE.INTER.CONST>
1

>  <SCORE.INTER.POLAR>
0

>  <SCORE.INTER.ROT>
6

>  <SCORE.INTER.SOLV>
21.1528

>  <SCORE.INTER.VDW>
-24.5478

>  <SCORE.INTER.norm>
-0.436628

>  <SCORE.INTRA>
-4.13804

>  <SCORE.INTRA.DIHEDRAL>
-7.94779

>  <SCORE.INTRA.DIHEDRAL.0>
15.8194

>  <SCORE.INTRA.POLAR>
0

>  <SCORE.INTRA.POLAR.0>
0

>  <SCORE.INTRA.REPUL>
0

>  <SCORE.INTRA.REPUL.0>
0

>  <SCORE.INTRA.SOLV>
-0.0875305

>  <SCORE.INTRA.SOLV.lig_0>
-71.9159

>  <SCORE.INTRA.VDW>
-0.120385

>  <SCORE.INTRA.VDW.0>
-3.53918

>  <SCORE.INTRA.norm>
-0.121707

>  <SCORE.RESTR>
0

>  <SCORE.RESTR.CAVITY>
0

>  <SCORE.RESTR.norm>
0

>  <SCORE.SYSTEM>
0

>  <SCORE.SYSTEM.CONST>
0

>  <SCORE.SYSTEM.DIHEDRAL>
0

>  <SCORE.SYSTEM.SOLV>
0

>  <SCORE.SYSTEM.norm>
0

>  <SCORE.heavy>
34

>  <SCORE.norm>
-0.558336

>  <RMSD>
0.965

$$$$
ligand
 OpenBabel01301917533D
libRbt.so/2013.1/901 2013/11/27
 34 36  0  0  0  0  0  0  0  0999 V2000
   18.2440   27.9112   35.1338 C   0  0  2  0  0  0  0  0  0  0  0  0
   18.8047   27.2948   36.2973 O   0  0  0  0  0  0  0  0  0  0  0  0
   22.5115   27.6577   38.4257 C   0  0  2  0  0  0  0  0  0  0  0  0
   23.9431   27.6297   38.7549 N   0  0  0  0  0  0  0  0  0  0  0  0
   23.9854   30.4987   37.7170 C   0  0  2  0  0  0  0  0  0  0  0  0
   16.6752   27.8264   35.2447 C   0  0  2  0  0  0  0  0  0  0  0  0
   16.1978   28.5021   36.4619 N   0  0  0  0  0  0  0  0  0  0  0  0
   22.1137   26.2319   37.8985 C   0  0  0  0  0  0  0  0  0  0  0  0
   24.1156   31.6933   38.7423 C   0  0  2  0  0  0  0  0  0  0  0  0
   23.8619   31.2401   40.0609 O   0  0  0  0  0  0  0  0  0  0  0  0
   16.2151   26.3373   35.2435 C   0  0  1  0  0  0  0  0  0  0  0  0
   14.7815   26.2552   35.3450 O   0  0  0  0  0  0  0  0  0  0  0  0
   20.5805   26.2572   37.5655 C   0  0  2  0  0  0  0  0  0  0  0  0
   20.1322   24.9317   37.0514 N   0  0  0  0  0  0  0  0  0  0  0  0
   23.0744   32.8041   38.3368 C   0  0  1  0  0  0  0  0  0  0  0  0
   23.1200   33.9382   39.2816 N   0  0  0  0  0  0  0  0  0  0  0  0
   16.7344   25.6675   33.9498 C   0  0  2  0  0  0  0  0  0  0  0  0
   16.3119   24.3005   33.9230 O   0  0  0  0  0  0  0  0  0  0  0  0
   20.2630   27.3448   36.4952 C   0  0  2  0  0  0  0  0  0  0  0  0
   23.3890   33.2911   36.8869 C   0  0  1  0  0  0  0  0  0  0  0  0
   24.6933   33.8622   36.8774 O   0  0  0  0  0  0  0  0  0  0  0  0
   18.3186   25.7900   33.9109 C   0  0  2  0  0  0  0  0  0  0  0  0
   18.7349   27.2096   33.9499 O   0  0  0  0  0  0  0  0  0  0  0  0
   20.7299   28.7292   37.0213 C   0  0  2  0  0  0  0  0  0  0  0  0
   20.4572   29.6995   36.0124 O   0  0  0  0  0  0  0  0  0  0  0  0
   23.3368   32.0648   35.9199 C   0  0  0  0  0  0  0  0  0  0  0  0
   24.2659   30.9946   36.3553 O   0  0  0  0  0  0  0  0  0  0  0  0
   18.9385   25.1459   32.6376 C   0  0  2  0  0  0  0  0  0  0  0  0
   18.1487   25.5006   31.4972 O   0  0  0  0  0  0  0  0  0  0  0  0
   22.2519   28.7540   37.3064 C   0  0  1  0  0  0  0  0  0  0  0  0
   22.5884   30.0735   37.8166 O   0  0  0  0  0  0  0  0  0  0  0  0
   18.9781   23.6360   32.7227 C   0  0  0  0  0  0  0  0  0  0  0  0
   22.4053   34.3606   36.4104 C   0  0  0  0  0  0  0  0  0  0  0  0
   22.0076   33.7579   40.2464 C   0  0  0  0  0  0  0  0  0  0  0  0
  1  2  1  1  0  0  0
  1  6  1  0  0  0  0
  1 23  1  0  0  0  0
  3  4  1  6  0  0  0
  3  8  1  0  0  0  0
  3 30  1  0  0  0  0
  5  9  1  0  0  0  0
  5 27  1  0  0  0  0
  5 31  1  6  0  0  0
  6  7  1  1  0  0  0
  6 11  1  0  0  0  0
  8 13  1  0  0  0  0
  9 10  1  1  0  0  0
  9 15  1  0  0  0  0
 11 12  1  6  0  0  0
 11 17  1  0  0  0  0
 13 14  1  6  0  0  0
 13 19  1  0  0  0  0
 15 16  1  1  0  0  0
 15 20  1  0  0  0  0
 16 34  1  0  0  0  0
 17 18  1  1  0  0  0
 17 22  1  0  0  0  0
 19  2  1  1  0  0  0
 19 24  1  0  0  0  0
 20 21  1  6  0  0  0
 20 26  1  0  0  0  0
 20 33  1  0  0  0  0
 22 23  1  6  0  0  0
 22 28  1  0  0  0  0
 24 25  1  6  0  0  0
 24 30  1  0  0  0  0
 26 27  1  0  0  0  0
 28 29  1  6  0  0  0
 28 32  1  0  0  0  0
 30 31  1  1  0  0  0
M  END
>  <CHROM.1>
-174.78592262,-163.43386509,-98.76054116,42.90988978,85.55370671,-161.89138404
20.60479193,28.75026258,36.37516931,2.35569718,0.51558339,-3.06782525

>  <Name>
ligand

>  <RI>
0

>  <Rbt.Current_Directory>
/home/itssahil/PROJECTS/Mol_Feturizer/New_Systems/rnas/4p3s

>  <Rbt.Executable>
rbdock ($Id: //depot/dev/client3/rdock/2013.1/src/exe/rbdock.cxx#4 $)

>  <Rbt.Library>
libRbt.so (2013.1, Build901 2013/11/27)

>  <Rbt.Parameter_File>
/export/apps/rDock/src/rDock_2013.1_src/data/scripts/dock_solv.prm

>  <Rbt.Receptor>
prm/pocket_docking_5.prm

>  <SCORE>
-19.0879

>  <SCORE.INTER>
-14.968

>  <SCORE.INTER.CONST>
1

>  <SCORE.INTER.POLAR>
0

>  <SCORE.INTER.ROT>
6

>  <SCORE.INTER.SOLV>
21.2304

>  <SCORE.INTER.VDW>
-24.6555

>  <SCORE.INTER.norm>
-0.440234

>  <SCORE.INTRA>
-4.11991

>  <SCORE.INTRA.DIHEDRAL>
-8.24648

>  <SCORE.INTRA.DIHEDRAL.0>
15.8194

>  <SCORE.INTRA.POLAR>
0

>  <SCORE.INTRA.POLAR.0>
0

>  <SCORE.INTRA.REPUL>
0

>  <SCORE.INTRA.REPUL.0>
0

>  <SCORE.INTRA.SOLV>
-0.102535

>  <SCORE.INTRA.SOLV.lig_0>
-71.9159

>  <SCORE.INTRA.VDW>
0.0545998

>  <SCORE.INTRA.VDW.0>
-3.53918

>  <SCORE.INTRA.norm>
-0.121174

>  <SCORE.RESTR>
0

>  <SCORE.RESTR.CAVITY>
0

>  <SCORE.RESTR.norm>
0

>  <SCORE.SYSTEM>
0

>  <SCORE.SYSTEM.CONST>
0

>  <SCORE.SYSTEM.DIHEDRAL>
0

>  <SCORE.SYSTEM.SOLV>
0

>  <SCORE.SYSTEM.norm>
0

>  <SCORE.heavy>
34

>  <SCORE.norm>
-0.561408

>  <RMSD>
0.966

$$$$
ligand
 OpenBabel01301917533D
libRbt.so/2013.1/901 2013/11/27
 34 36  0  0  0  0  0  0  0  0999 V2000
   18.1500   27.9368   35.1444 C   0  0  2  0  0  0  0  0  0  0  0  0
   18.7230   27.3241   36.3039 O   0  0  0  0  0  0  0  0  0  0  0  0
   22.4526   27.6550   38.3975 C   0  0  2  0  0  0  0  0  0  0  0  0
   23.8879   27.6250   38.7099 N   0  0  0  0  0  0  0  0  0  0  0  0
   23.9078   30.5180   37.7265 C   0  0  2  0  0  0  0  0  0  0  0  0
   16.5838   27.8067   35.2474 C   0  0  2  0  0  0  0  0  0  0  0  0
   16.0824   28.4557   36.4695 N   0  0  0  0  0  0  0  0  0  0  0  0
   22.0534   26.2392   37.8449 C   0  0  0  0  0  0  0  0  0  0  0  0
   24.0390   31.7139   38.7502 C   0  0  2  0  0  0  0  0  0  0  0  0
   23.8000   31.2595   40.0712 O   0  0  0  0  0  0  0  0  0  0  0  0
   16.1659   26.3053   35.2285 C   0  0  1  0  0  0  0  0  0  0  0  0
   14.7348   26.1817   35.3227 O   0  0  0  0  0  0  0  0  0  0  0  0
   20.5164   26.2662   37.5299 C   0  0  2  0  0  0  0  0  0  0  0  0
   20.0666   24.9503   36.9930 N   0  0  0  0  0  0  0  0  0  0  0  0
   22.9867   32.8173   38.3535 C   0  0  1  0  0  0  0  0  0  0  0  0
   23.0329   33.9521   39.2974 N   0  0  0  0  0  0  0  0  0  0  0  0
   16.7094   25.6641   33.9302 C   0  0  2  0  0  0  0  0  0  0  0  0
   16.3257   24.2861   33.8871 O   0  0  0  0  0  0  0  0  0  0  0  0
   20.1833   27.3750   36.4863 C   0  0  2  0  0  0  0  0  0  0  0  0
   23.2851   33.3059   36.9008 C   0  0  1  0  0  0  0  0  0  0  0  0
   24.5853   33.8859   36.8795 O   0  0  0  0  0  0  0  0  0  0  0  0
   18.2896   25.8317   33.8997 C   0  0  2  0  0  0  0  0  0  0  0  0
   18.6655   27.2619   33.9555 O   0  0  0  0  0  0  0  0  0  0  0  0
   20.6517   28.7496   37.0362 C   0  0  2  0  0  0  0  0  0  0  0  0
   20.3644   29.7400   36.0511 O   0  0  0  0  0  0  0  0  0  0  0  0
   23.2327   32.0789   35.9347 C   0  0  0  0  0  0  0  0  0  0  0  0
   24.1729   31.0153   36.3622 O   0  0  0  0  0  0  0  0  0  0  0  0
   18.9328   25.2188   32.6225 C   0  0  2  0  0  0  0  0  0  0  0  0
   18.1164   25.5290   31.4879 O   0  0  0  0  0  0  0  0  0  0  0  0
   22.1767   28.7737   37.3046 C   0  0  1  0  0  0  0  0  0  0  0  0
   22.5148   30.0834   37.8386 O   0  0  0  0  0  0  0  0  0  0  0  0
   19.0529   23.7133   32.7095 C   0  0  0  0  0  0  0  0  0  0  0  0
   22.2899   34.3685   36.4325 C   0  0  0  0  0  0  0  0  0  0  0  0
   21.8886   33.8018   40.2296 C   0  0  0  0  0  0  0  0  0  0  0  0
  1  2  1  1  0  0  0
  1  6  1  0  0  0  0
  1 23  1  0  0  0  0
  3  4  1  6  0  0  0
  3  8  1  0  0  0  0
  3 30  1  0  0  0  0
  5  9  1  0  0  0  0
  5 27  1  0  0  0  0
  5 31  1  6  0  0  0
  6  7  1  1  0  0  0
  6 11  1  0  0  0  0
  8 13  1  0  0  0  0
  9 10  1  1  0  0  0
  9 15  1  0  0  0  0
 11 12  1  6  0  0  0
 11 17  1  0  0  0  0
 13 14  1  6  0  0  0
 13 19  1  0  0  0  0
 15 16  1  1  0  0  0
 15 20  1  0  0  0  0
 16 34  1  0  0  0  0
 17 18  1  1  0  0  0
 17 22  1  0  0  0  0
 19  2  1  1  0  0  0
 19 24  1  0  0  0  0
 20 21  1  6  0  0  0
 20 26  1  0  0  0  0
 20 33  1  0  0  0  0
 22 23  1  6  0  0  0
 22 28  1  0  0  0  0
 24 25  1  6  0  0  0
 24 30  1  0  0  0  0
 26 27  1  0  0  0  0
 28 29  1  6  0  0  0
 28 32  1  0  0  0  0
 30 31  1  1  0  0  0
M  END
>  <CHROM.1>
-176.76488788,-162.03568436,-101.60096993,41.18199308,85.83831457,-163.24922779
20.53770224,28.76502136,36.37067392,2.33876100,0.49670665,-3.04033195

>  <Name>
ligand

>  <RI>
0

>  <Rbt.Current_Directory>
/home/itssahil/PROJECTS/Mol_Feturizer/New_Systems/rnas/4p3s

>  <Rbt.Executable>
rbdock ($Id: //depot/dev/client3/rdock/2013.1/src/exe/rbdock.cxx#4 $)

>  <Rbt.Library>
libRbt.so (2013.1, Build901 2013/11/27)

>  <Rbt.Parameter_File>
/export/apps/rDock/src/rDock_2013.1_src/data/scripts/dock_solv.prm

>  <Rbt.Receptor>
prm/pocket_docking_3.prm

>  <SCORE>
-18.9018

>  <SCORE.INTER>
-14.8128

>  <SCORE.INTER.CONST>
1

>  <SCORE.INTER.POLAR>
0

>  <SCORE.INTER.ROT>
6

>  <SCORE.INTER.SOLV>
20.9735

>  <SCORE.INTER.VDW>
-24.4663

>  <SCORE.INTER.norm>
-0.435669

>  <SCORE.INTRA>
-4.08903

>  <SCORE.INTRA.DIHEDRAL>
-8.00012

>  <SCORE.INTRA.DIHEDRAL.0>
15.8194

>  <SCORE.INTRA.POLAR>
0

>  <SCORE.INTRA.POLAR.0>
0

>  <SCORE.INTRA.REPUL>
0

>  <SCORE.INTRA.REPUL.0>
0

>  <SCORE.INTRA.SOLV>
0.00848375

>  <SCORE.INTRA.SOLV.lig_0>
-71.9159

>  <SCORE.INTRA.VDW>
-0.0932085

>  <SCORE.INTRA.VDW.0>
-3.53918

>  <SCORE.INTRA.norm>
-0.120265

>  <SCORE.RESTR>
0

>  <SCORE.RESTR.CAVITY>
0

>  <SCORE.RESTR.norm>
0

>  <SCORE.SYSTEM>
0

>  <SCORE.SYSTEM.CONST>
0

>  <SCORE.SYSTEM.DIHEDRAL>
0

>  <SCORE.SYSTEM.SOLV>
0

>  <SCORE.SYSTEM.norm>
0

>  <SCORE.heavy>
34

>  <SCORE.norm>
-0.555935

>  <RMSD>
0.967

$$$$
ligand
 OpenBabel01301917533D
libRbt.so/2013.1/901 2013/11/27
 34 36  0  0  0  0  0  0  0  0999 V2000
   18.2158   28.1757   35.1218 C   0  0  2  0  0  0  0  0  0  0  0  0
   18.7538   27.4836   36.2531 O   0  0  0  0  0  0  0  0  0  0  0  0
   22.4550   27.6689   38.4138 C   0  0  2  0  0  0  0  0  0  0  0  0
   23.8832   27.5902   38.7497 N   0  0  0  0  0  0  0  0  0  0  0  0
   24.0025   30.5093   37.7818 C   0  0  2  0  0  0  0  0  0  0  0  0
   16.6969   28.4762   35.4108 C   0  0  2  0  0  0  0  0  0  0  0  0
   16.5451   29.2897   36.6278 N   0  0  0  0  0  0  0  0  0  0  0  0
   22.0223   26.2743   37.8333 C   0  0  0  0  0  0  0  0  0  0  0  0
   24.1456   31.7302   38.7740 C   0  0  2  0  0  0  0  0  0  0  0  0
   23.8871   31.3161   40.1044 O   0  0  0  0  0  0  0  0  0  0  0  0
   15.9025   27.1432   35.5552 C   0  0  1  0  0  0  0  0  0  0  0  0
   14.5134   27.4133   35.8197 O   0  0  0  0  0  0  0  0  0  0  0  0
   20.4926   26.3533   37.4929 C   0  0  2  0  0  0  0  0  0  0  0  0
   20.0120   25.0597   36.9288 N   0  0  0  0  0  0  0  0  0  0  0  0
   23.1164   32.8405   38.3378 C   0  0  1  0  0  0  0  0  0  0  0  0
   23.1742   33.9996   39.2511 N   0  0  0  0  0  0  0  0  0  0  0  0
   16.0867   26.3225   34.2573 C   0  0  2  0  0  0  0  0  0  0  0  0
   15.3540   25.0979   34.3644 O   0  0  0  0  0  0  0  0  0  0  0  0
   20.2116   27.4868   36.4607 C   0  0  2  0  0  0  0  0  0  0  0  0
   23.4361   33.2841   36.8752 C   0  0  1  0  0  0  0  0  0  0  0  0
   24.7464   33.8408   36.8503 O   0  0  0  0  0  0  0  0  0  0  0  0
   17.6381   26.0575   34.0357 C   0  0  2  0  0  0  0  0  0  0  0  0
   18.3786   27.3351   33.9380 O   0  0  0  0  0  0  0  0  0  0  0  0
   20.7122   28.8382   37.0391 C   0  0  2  0  0  0  0  0  0  0  0  0
   20.4724   29.8512   36.0643 O   0  0  0  0  0  0  0  0  0  0  0  0
   23.3707   32.0324   35.9422 C   0  0  0  0  0  0  0  0  0  0  0  0
   24.2882   30.9646   36.4071 O   0  0  0  0  0  0  0  0  0  0  0  0
   17.9279   25.2382   32.7453 C   0  0  2  0  0  0  0  0  0  0  0  0
   17.1894   24.0123   32.7890 O   0  0  0  0  0  0  0  0  0  0  0  0
   22.2325   28.8114   37.3333 C   0  0  1  0  0  0  0  0  0  0  0  0
   22.6011   30.1021   37.8927 O   0  0  0  0  0  0  0  0  0  0  0  0
   19.3938   24.8917   32.6057 C   0  0  0  0  0  0  0  0  0  0  0  0
   22.4639   34.3507   36.3692 C   0  0  0  0  0  0  0  0  0  0  0  0
   22.0779   33.8427   40.2382 C   0  0  0  0  0  0  0  0  0  0  0  0
  1  2  1  1  0  0  0
  1  6  1  0  0  0  0
  1 23  1  0  0  0  0
  3  4  1  6  0  0  0
  3  8  1  0  0  0  0
  3 30  1  0  0  0  0
  5  9  1  0  0  0  0
  5 27  1  0  0  0  0
  5 31  1  6  0  0  0
  6  7  1  1  0  0  0
  6 11  1  0  0  0  0
  8 13  1  0  0  0  0
  9 10  1  1  0  0  0
  9 15  1  0  0  0  0
 11 12  1  6  0  0  0
 11 17  1  0  0  0  0
 13 14  1  6  0  0  0
 13 19  1  0  0  0  0
 15 16  1  1  0  0  0
 15 20  1  0  0  0  0
 16 34  1  0  0  0  0
 17 18  1  1  0  0  0
 17 22  1  0  0  0  0
 19  2  1  1  0  0  0
 19 24  1  0  0  0  0
 20 21  1  6  0  0  0
 20 26  1  0  0  0  0
 20 33  1  0  0  0  0
 22 23  1  6  0  0  0
 22 28  1  0  0  0  0
 24 25  1  6  0  0  0
 24 30  1  0  0  0  0
 26 27  1  0  0  0  0
 28 29  1  1  0  0  0
 28 32  1  0  0  0  0
 30 31  1  1  0  0  0
M  END
>  <CHROM.1>
-159.28183680,-164.48436827,-97.56361673,-55.63158009,87.27721140,-166.13165503
20.47065050,28.93866091,36.47409251,2.36436883,0.37456865,-2.97025805

>  <Name>
ligand

>  <RI>
0

>  <Rbt.Current_Directory>
/home/itssahil/PROJECTS/Mol_Feturizer/New_Systems/rnas/4p3s

>  <Rbt.Executable>
rbdock ($Id: //depot/dev/client3/rdock/2013.1/src/exe/rbdock.cxx#4 $)

>  <Rbt.Library>
libRbt.so (2013.1, Build901 2013/11/27)

>  <Rbt.Parameter_File>
/export/apps/rDock/src/rDock_2013.1_src/data/scripts/dock_solv.prm

>  <Rbt.Receptor>
prm/pocket_docking_4.prm

>  <SCORE>
-19.2772

>  <SCORE.INTER>
-15.3957

>  <SCORE.INTER.CONST>
1

>  <SCORE.INTER.POLAR>
0

>  <SCORE.INTER.ROT>
6

>  <SCORE.INTER.SOLV>
19.7878

>  <SCORE.INTER.VDW>
-24.4597

>  <SCORE.INTER.norm>
-0.452813

>  <SCORE.INTRA>
-3.88158

>  <SCORE.INTRA.DIHEDRAL>
-7.82208

>  <SCORE.INTRA.DIHEDRAL.0>
15.8194

>  <SCORE.INTRA.POLAR>
0

>  <SCORE.INTRA.POLAR.0>
0

>  <SCORE.INTRA.REPUL>
0

>  <SCORE.INTRA.REPUL.0>
0

>  <SCORE.INTRA.SOLV>
0.128687

>  <SCORE.INTRA.SOLV.lig_0>
-71.9159

>  <SCORE.INTRA.VDW>
-0.034889

>  <SCORE.INTRA.VDW.0>
-3.53918

>  <SCORE.INTRA.norm>
-0.114164

>  <SCORE.RESTR>
0

>  <SCORE.RESTR.CAVITY>
0

>  <SCORE.RESTR.norm>
0

>  <SCORE.SYSTEM>
0

>  <SCORE.SYSTEM.CONST>
0

>  <SCORE.SYSTEM.DIHEDRAL>
0

>  <SCORE.SYSTEM.SOLV>
0

>  <SCORE.SYSTEM.norm>
0

>  <SCORE.heavy>
34

>  <SCORE.norm>
-0.566977

>  <RMSD>
0.969

$$$$
ligand
 OpenBabel01301917533D
libRbt.so/2013.1/901 2013/11/27
 34 36  0  0  0  0  0  0  0  0999 V2000
   18.2061   28.0293   35.2585 C   0  0  2  0  0  0  0  0  0  0  0  0
   18.7870   27.3989   36.4045 O   0  0  0  0  0  0  0  0  0  0  0  0
   22.5480   27.6543   38.4519 C   0  0  2  0  0  0  0  0  0  0  0  0
   23.9870   27.6033   38.7440 N   0  0  0  0  0  0  0  0  0  0  0  0
   24.0241   30.5166   37.7952 C   0  0  2  0  0  0  0  0  0  0  0  0
   16.6399   27.9171   35.3814 C   0  0  2  0  0  0  0  0  0  0  0  0
   16.1627   28.5605   36.6160 N   0  0  0  0  0  0  0  0  0  0  0  0
   22.1252   26.2521   37.8825 C   0  0  0  0  0  0  0  0  0  0  0  0
   24.1732   31.7271   38.7992 C   0  0  2  0  0  0  0  0  0  0  0  0
   23.9482   31.2937   40.1296 O   0  0  0  0  0  0  0  0  0  0  0  0
   16.2036   26.4211   35.3542 C   0  0  1  0  0  0  0  0  0  0  0  0
   14.7725   26.3138   35.4664 O   0  0  0  0  0  0  0  0  0  0  0  0
   20.5845   26.3015   37.5890 C   0  0  2  0  0  0  0  0  0  0  0  0
   20.1124   24.9994   37.0376 N   0  0  0  0  0  0  0  0  0  0  0  0
   23.1214   32.8295   38.3987 C   0  0  1  0  0  0  0  0  0  0  0  0
   23.1843   33.9781   39.3248 N   0  0  0  0  0  0  0  0  0  0  0  0
   16.7219   25.7856   34.0428 C   0  0  2  0  0  0  0  0  0  0  0  0
   16.3210   24.4128   33.9922 O   0  0  0  0  0  0  0  0  0  0  0  0
   20.2501   27.4304   36.5677 C   0  0  2  0  0  0  0  0  0  0  0  0
   23.4045   33.2948   36.9352 C   0  0  1  0  0  0  0  0  0  0  0  0
   24.7070   33.8682   36.8896 O   0  0  0  0  0  0  0  0  0  0  0  0
   18.3035   25.9345   33.9926 C   0  0  2  0  0  0  0  0  0  0  0  0
   18.6974   27.3595   34.0566 O   0  0  0  0  0  0  0  0  0  0  0  0
   20.7416   28.7908   37.1328 C   0  0  2  0  0  0  0  0  0  0  0  0
   20.4524   29.7998   36.1675 O   0  0  0  0  0  0  0  0  0  0  0  0
   23.3347   32.0538   35.9884 C   0  0  0  0  0  0  0  0  0  0  0  0
   24.2749   30.9921   36.4205 O   0  0  0  0  0  0  0  0  0  0  0  0
   18.9221   25.3260   32.7013 C   0  0  2  0  0  0  0  0  0  0  0  0
   18.1394   25.7241   31.5704 O   0  0  0  0  0  0  0  0  0  0  0  0
   22.2703   28.7934   37.3806 C   0  0  1  0  0  0  0  0  0  0  0  0
   22.6305   30.0905   37.9306 O   0  0  0  0  0  0  0  0  0  0  0  0
   18.9480   23.8138   32.7380 C   0  0  0  0  0  0  0  0  0  0  0  0
   22.4087   34.3551   36.4631 C   0  0  0  0  0  0  0  0  0  0  0  0
   22.1036   33.8018   40.3256 C   0  0  0  0  0  0  0  0  0  0  0  0
  1  2  1  1  0  0  0
  1  6  1  0  0  0  0
  1 23  1  0  0  0  0
  3  4  1  6  0  0  0
  3  8  1  0  0  0  0
  3 30  1  0  0  0  0
  5  9  1  0  0  0  0
  5 27  1  0  0  0  0
  5 31  1  6  0  0  0
  6  7  1  1  0  0  0
  6 11  1  0  0  0  0
  8 13  1  0  0  0  0
  9 10  1  1  0  0  0
  9 15  1  0  0  0  0
 11 12  1  6  0  0  0
 11 17  1  0  0  0  0
 13 14  1  6  0  0  0
 13 19  1  0  0  0  0
 15 16  1  1  0  0  0
 15 20  1  0  0  0  0
 16 34  1  0  0  0  0
 17 18  1  1  0  0  0
 17 22  1  0  0  0  0
 19  2  1  1  0  0  0
 19 24  1  0  0  0  0
 20 21  1  6  0  0  0
 20 26  1  0  0  0  0
 20 33  1  0  0  0  0
 22 23  1  6  0  0  0
 22 28  1  0  0  0  0
 24 25  1  6  0  0  0
 24 30  1  0  0  0  0
 26 27  1  0  0  0  0
 28 29  1  6  0  0  0
 28 32  1  0  0  0  0
 30 31  1  1  0  0  0
M  END
>  <CHROM.1>
-176.76839198,-161.65630426,-98.05670520,44.64486324,86.39695161,-165.24869820
20.61378608,28.81661744,36.44705532,2.36123271,0.49700931,-3.05494128

>  <Name>
ligand

>  <RI>
0

>  <Rbt.Current_Directory>
/home/itssahil/PROJECTS/Mol_Feturizer/New_Systems/rnas/4p3s

>  <Rbt.Executable>
rbdock ($Id: //depot/dev/client3/rdock/2013.1/src/exe/rbdock.cxx#4 $)

>  <Rbt.Library>
libRbt.so (2013.1, Build901 2013/11/27)

>  <Rbt.Parameter_File>
/export/apps/rDock/src/rDock_2013.1_src/data/scripts/dock_solv.prm

>  <Rbt.Receptor>
prm/pocket_docking_4.prm

>  <SCORE>
-19.1381

>  <SCORE.INTER>
-14.8754

>  <SCORE.INTER.CONST>
1

>  <SCORE.INTER.POLAR>
0

>  <SCORE.INTER.ROT>
6

>  <SCORE.INTER.SOLV>
21.0877

>  <SCORE.INTER.VDW>
-24.5462

>  <SCORE.INTER.norm>
-0.437511

>  <SCORE.INTRA>
-4.26269

>  <SCORE.INTRA.DIHEDRAL>
-8.58784

>  <SCORE.INTRA.DIHEDRAL.0>
15.8194

>  <SCORE.INTRA.POLAR>
0

>  <SCORE.INTRA.POLAR.0>
0

>  <SCORE.INTRA.REPUL>
0

>  <SCORE.INTRA.REPUL.0>
0

>  <SCORE.INTRA.SOLV>
-0.0331772

>  <SCORE.INTRA.SOLV.lig_0>
-71.9159

>  <SCORE.INTRA.VDW>
0.0478146

>  <SCORE.INTRA.VDW.0>
-3.53918

>  <SCORE.INTRA.norm>
-0.125373

>  <SCORE.RESTR>
0

>  <SCORE.RESTR.CAVITY>
0

>  <SCORE.RESTR.norm>
0

>  <SCORE.SYSTEM>
0

>  <SCORE.SYSTEM.CONST>
0

>  <SCORE.SYSTEM.DIHEDRAL>
0

>  <SCORE.SYSTEM.SOLV>
0

>  <SCORE.SYSTEM.norm>
0

>  <SCORE.heavy>
34

>  <SCORE.norm>
-0.562885

>  <RMSD>
0.970

$$$$
ligand
 OpenBabel01301917533D
libRbt.so/2013.1/901 2013/11/27
 34 36  0  0  0  0  0  0  0  0999 V2000
   18.2047   28.0279   35.2777 C   0  0  2  0  0  0  0  0  0  0  0  0
   18.7899   27.3936   36.4194 O   0  0  0  0  0  0  0  0  0  0  0  0
   22.5530   27.6535   38.4625 C   0  0  2  0  0  0  0  0  0  0  0  0
   23.9926   27.6067   38.7522 N   0  0  0  0  0  0  0  0  0  0  0  0
   24.0149   30.5285   37.8115 C   0  0  2  0  0  0  0  0  0  0  0  0
   16.6395   27.8993   35.3969 C   0  0  2  0  0  0  0  0  0  0  0  0
   16.1540   28.5276   36.6361 N   0  0  0  0  0  0  0  0  0  0  0  0
   22.1349   26.2526   37.8864 C   0  0  0  0  0  0  0  0  0  0  0  0
   24.1544   31.7539   38.7986 C   0  0  2  0  0  0  0  0  0  0  0  0
   23.9337   31.3370   40.1350 O   0  0  0  0  0  0  0  0  0  0  0  0
   16.2180   26.3994   35.3564 C   0  0  1  0  0  0  0  0  0  0  0  0
   14.7878   26.2772   35.4653 O   0  0  0  0  0  0  0  0  0  0  0  0
   20.5936   26.2973   37.5955 C   0  0  2  0  0  0  0  0  0  0  0  0
   20.1258   24.9962   37.0381 N   0  0  0  0  0  0  0  0  0  0  0  0
   23.0932   32.8419   38.3835 C   0  0  1  0  0  0  0  0  0  0  0  0
   23.1470   34.0036   39.2937 N   0  0  0  0  0  0  0  0  0  0  0  0
   16.7447   25.7801   34.0406 C   0  0  2  0  0  0  0  0  0  0  0  0
   16.3574   24.4039   33.9778 O   0  0  0  0  0  0  0  0  0  0  0  0
   20.2531   27.4302   36.5806 C   0  0  2  0  0  0  0  0  0  0  0  0
   23.3716   33.2893   36.9137 C   0  0  1  0  0  0  0  0  0  0  0  0
   24.6693   33.8728   36.8593 O   0  0  0  0  0  0  0  0  0  0  0  0
   18.3248   25.9449   33.9944 C   0  0  2  0  0  0  0  0  0  0  0  0
   18.7046   27.3731   34.0711 O   0  0  0  0  0  0  0  0  0  0  0  0
   20.7400   28.7895   37.1520 C   0  0  2  0  0  0  0  0  0  0  0  0
   20.4454   29.8024   36.1923 O   0  0  0  0  0  0  0  0  0  0  0  0
   23.3117   32.0348   35.9841 C   0  0  0  0  0  0  0  0  0  0  0  0
   24.2610   30.9870   36.4302 O   0  0  0  0  0  0  0  0  0  0  0  0
   18.9515   25.3534   32.6992 C   0  0  2  0  0  0  0  0  0  0  0  0
   18.1639   25.7491   31.5708 O   0  0  0  0  0  0  0  0  0  0  0  0
   22.2691   28.7970   37.3975 C   0  0  1  0  0  0  0  0  0  0  0  0
   22.6250   30.0926   37.9537 O   0  0  0  0  0  0  0  0  0  0  0  0
   18.9970   23.8415   32.7254 C   0  0  0  0  0  0  0  0  0  0  0  0
   22.3668   34.3346   36.4275 C   0  0  0  0  0  0  0  0  0  0  0  0
   22.0590   33.8395   40.2887 C   0  0  0  0  0  0  0  0  0  0  0  0
  1  2  1  1  0  0  0
  1  6  1  0  0  0  0
  1 23  1  0  0  0  0
  3  4  1  6  0  0  0
  3  8  1  0  0  0  0
  3 30  1  0  0  0  0
  5  9  1  0  0  0  0
  5 27  1  0  0  0  0
  5 31  1  6  0  0  0
  6  7  1  1  0  0  0
  6 11  1  0  0  0  0
  8 13  1  0  0  0  0
  9 10  1  1  0  0  0
  9 15  1  0  0  0  0
 11 12  1  6  0  0  0
 11 17  1  0  0  0  0
 13 14  1  6  0  0  0
 13 19  1  0  0  0  0
 15 16  1  1  0  0  0
 15 20  1  0  0  0  0
 16 34  1  0  0  0  0
 17 18  1  1  0  0  0
 17 22  1  0  0  0  0
 19  2  1  1  0  0  0
 19 24  1  0  0  0  0
 20 21  1  6  0  0  0
 20 26  1  0  0  0  0
 20 33  1  0  0  0  0
 22 23  1  6  0  0  0
 22 28  1  0  0  0  0
 24 25  1  6  0  0  0
 24 30  1  0  0  0  0
 26 27  1  0  0  0  0
 28 29  1  6  0  0  0
 28 32  1  0  0  0  0
 30 31  1  1  0  0  0
M  END
>  <CHROM.1>
-177.18382527,-161.67255888,-98.65887563,44.42602241,86.74563801,-166.48262637
20.61208674,28.81937034,36.44805708,2.35881911,0.50084689,-3.05785482

>  <Name>
ligand

>  <RI>
0

>  <Rbt.Current_Directory>
/home/itssahil/PROJECTS/Mol_Feturizer/New_Systems/rnas/4p3s

>  <Rbt.Executable>
rbdock ($Id: //depot/dev/client3/rdock/2013.1/src/exe/rbdock.cxx#4 $)

>  <Rbt.Library>
libRbt.so (2013.1, Build901 2013/11/27)

>  <Rbt.Parameter_File>
/export/apps/rDock/src/rDock_2013.1_src/data/scripts/dock_solv.prm

>  <Rbt.Receptor>
prm/pocket_docking_4.prm

>  <SCORE>
-19.151

>  <SCORE.INTER>
-14.8131

>  <SCORE.INTER.CONST>
1

>  <SCORE.INTER.POLAR>
0

>  <SCORE.INTER.ROT>
6

>  <SCORE.INTER.SOLV>
21.0293

>  <SCORE.INTER.VDW>
-24.4852

>  <SCORE.INTER.norm>
-0.435679

>  <SCORE.INTRA>
-4.33797

>  <SCORE.INTRA.DIHEDRAL>
-8.65583

>  <SCORE.INTRA.DIHEDRAL.0>
15.8194

>  <SCORE.INTRA.POLAR>
0

>  <SCORE.INTRA.POLAR.0>
0

>  <SCORE.INTRA.REPUL>
0

>  <SCORE.INTRA.REPUL.0>
0

>  <SCORE.INTRA.SOLV>
-0.0577402

>  <SCORE.INTRA.SOLV.lig_0>
-71.9159

>  <SCORE.INTRA.VDW>
0.0188166

>  <SCORE.INTRA.VDW.0>
-3.53918

>  <SCORE.INTRA.norm>
-0.127587

>  <SCORE.RESTR>
0

>  <SCORE.RESTR.CAVITY>
0

>  <SCORE.RESTR.norm>
0

>  <SCORE.SYSTEM>
0

>  <SCORE.SYSTEM.CONST>
0

>  <SCORE.SYSTEM.DIHEDRAL>
0

>  <SCORE.SYSTEM.SOLV>
0

>  <SCORE.SYSTEM.norm>
0

>  <SCORE.heavy>
34

>  <SCORE.norm>
-0.563266

>  <RMSD>
0.973

$$$$
ligand
 OpenBabel01301917533D
libRbt.so/2013.1/901 2013/11/27
 34 36  0  0  0  0  0  0  0  0999 V2000
   18.1907   28.1438   35.0677 C   0  0  2  0  0  0  0  0  0  0  0  0
   18.7272   27.4501   36.1988 O   0  0  0  0  0  0  0  0  0  0  0  0
   22.4143   27.6701   38.3802 C   0  0  2  0  0  0  0  0  0  0  0  0
   23.8409   27.6016   38.7250 N   0  0  0  0  0  0  0  0  0  0  0  0
   23.9564   30.4990   37.7727 C   0  0  2  0  0  0  0  0  0  0  0  0
   16.6656   28.4230   35.3449 C   0  0  2  0  0  0  0  0  0  0  0  0
   16.4925   29.2255   36.5664 N   0  0  0  0  0  0  0  0  0  0  0  0
   21.9930   26.2694   37.8060 C   0  0  0  0  0  0  0  0  0  0  0  0
   24.0800   31.7175   38.7703 C   0  0  2  0  0  0  0  0  0  0  0  0
   23.7823   31.3033   40.0926 O   0  0  0  0  0  0  0  0  0  0  0  0
   15.8868   27.0790   35.4723 C   0  0  1  0  0  0  0  0  0  0  0  0
   14.4921   27.3297   35.7259 O   0  0  0  0  0  0  0  0  0  0  0  0
   20.4648   26.3376   37.4561 C   0  0  2  0  0  0  0  0  0  0  0  0
   19.9949   25.0377   36.8975 N   0  0  0  0  0  0  0  0  0  0  0  0
   23.0704   32.8351   38.3078 C   0  0  1  0  0  0  0  0  0  0  0  0
   23.1106   33.9925   39.2241 N   0  0  0  0  0  0  0  0  0  0  0  0
   16.0932   26.2704   34.1702 C   0  0  2  0  0  0  0  0  0  0  0  0
   15.3752   25.0359   34.2616 O   0  0  0  0  0  0  0  0  0  0  0  0
   20.1836   27.4629   36.4151 C   0  0  2  0  0  0  0  0  0  0  0  0
   23.4332   33.2786   36.8552 C   0  0  1  0  0  0  0  0  0  0  0  0
   24.7472   33.8267   36.8672 O   0  0  0  0  0  0  0  0  0  0  0  0
   17.6498   26.0266   33.9609 C   0  0  2  0  0  0  0  0  0  0  0  0
   18.3750   27.3140   33.8794 O   0  0  0  0  0  0  0  0  0  0  0  0
   20.6732   28.8208   36.9877 C   0  0  2  0  0  0  0  0  0  0  0  0
   20.4335   29.8261   36.0051 O   0  0  0  0  0  0  0  0  0  0  0  0
   23.3853   32.0286   35.9188 C   0  0  0  0  0  0  0  0  0  0  0  0
   24.2828   30.9543   36.4071 O   0  0  0  0  0  0  0  0  0  0  0  0
   17.9617   25.2206   32.6673 C   0  0  2  0  0  0  0  0  0  0  0  0
   17.1852   24.0176   32.6623 O   0  0  0  0  0  0  0  0  0  0  0  0
   22.1918   28.8044   37.2911 C   0  0  1  0  0  0  0  0  0  0  0  0
   22.5499   30.1007   37.8444 O   0  0  0  0  0  0  0  0  0  0  0  0
   19.4205   24.8311   32.5745 C   0  0  0  0  0  0  0  0  0  0  0  0
   22.4821   34.3521   36.3242 C   0  0  0  0  0  0  0  0  0  0  0  0
   22.0128   33.8196   40.2068 C   0  0  0  0  0  0  0  0  0  0  0  0
  1  2  1  1  0  0  0
  1  6  1  0  0  0  0
  1 23  1  0  0  0  0
  3  4  1  6  0  0  0
  3  8  1  0  0  0  0
  3 30  1  0  0  0  0
  5  9  1  0  0  0  0
  5 27  1  0  0  0  0
  5 31  1  6  0  0  0
  6  7  1  1  0  0  0
  6 11  1  0  0  0  0
  8 13  1  0  0  0  0
  9 10  1  1  0  0  0
  9 15  1  0  0  0  0
 11 12  1  6  0  0  0
 11 17  1  0  0  0  0
 13 14  1  6  0  0  0
 13 19  1  0  0  0  0
 15 16  1  1  0  0  0
 15 20  1  0  0  0  0
 16 34  1  0  0  0  0
 17 18  1  1  0  0  0
 17 22  1  0  0  0  0
 19  2  1  1  0  0  0
 19 24  1  0  0  0  0
 20 21  1  6  0  0  0
 20 26  1  0  0  0  0
 20 33  1  0  0  0  0
 22 23  1  6  0  0  0
 22 28  1  0  0  0  0
 24 25  1  6  0  0  0
 24 30  1  0  0  0  0
 26 27  1  0  0  0  0
 28 29  1  1  0  0  0
 28 32  1  0  0  0  0
 30 31  1  1  0  0  0
M  END
>  <CHROM.1>
-159.66932483,-165.13236959,-95.81588529,-52.64382709,85.60767161,-165.22948867
20.44715771,28.91559735,36.42804152,2.35868159,0.37803844,-2.96536751

>  <Name>
ligand

>  <RI>
0

>  <Rbt.Current_Directory>
/home/itssahil/PROJECTS/Mol_Feturizer/New_Systems/rnas/4p3s

>  <Rbt.Executable>
rbdock ($Id: //depot/dev/client3/rdock/2013.1/src/exe/rbdock.cxx#4 $)

>  <Rbt.Library>
libRbt.so (2013.1, Build901 2013/11/27)

>  <Rbt.Parameter_File>
/export/apps/rDock/src/rDock_2013.1_src/data/scripts/dock_solv.prm

>  <Rbt.Receptor>
prm/pocket_docking_5.prm

>  <SCORE>
-19.2796

>  <SCORE.INTER>
-15.4003

>  <SCORE.INTER.CONST>
1

>  <SCORE.INTER.POLAR>
0

>  <SCORE.INTER.ROT>
6

>  <SCORE.INTER.SOLV>
20.0569

>  <SCORE.INTER.VDW>
-24.5525

>  <SCORE.INTER.norm>
-0.452949

>  <SCORE.INTRA>
-3.87936

>  <SCORE.INTRA.DIHEDRAL>
-8.08137

>  <SCORE.INTRA.DIHEDRAL.0>
15.8194

>  <SCORE.INTRA.POLAR>
0

>  <SCORE.INTRA.POLAR.0>
0

>  <SCORE.INTRA.REPUL>
0

>  <SCORE.INTRA.REPUL.0>
0

>  <SCORE.INTRA.SOLV>
0.163079

>  <SCORE.INTRA.SOLV.lig_0>
-71.9159

>  <SCORE.INTRA.VDW>
0.0797835

>  <SCORE.INTRA.VDW.0>
-3.53918

>  <SCORE.INTRA.norm>
-0.114099

>  <SCORE.RESTR>
0

>  <SCORE.RESTR.CAVITY>
0

>  <SCORE.RESTR.norm>
0

>  <SCORE.SYSTEM>
0

>  <SCORE.SYSTEM.CONST>
0

>  <SCORE.SYSTEM.DIHEDRAL>
0

>  <SCORE.SYSTEM.SOLV>
0

>  <SCORE.SYSTEM.norm>
0

>  <SCORE.heavy>
34

>  <SCORE.norm>
-0.567048

>  <RMSD>
0.974

$$$$
ligand
 OpenBabel01301917533D
libRbt.so/2013.1/901 2013/11/27
 34 36  0  0  0  0  0  0  0  0999 V2000
   18.2108   28.0050   35.2043 C   0  0  2  0  0  0  0  0  0  0  0  0
   18.7844   27.3735   36.3534 O   0  0  0  0  0  0  0  0  0  0  0  0
   22.5266   27.6513   38.4320 C   0  0  2  0  0  0  0  0  0  0  0  0
   23.9632   27.6062   38.7369 N   0  0  0  0  0  0  0  0  0  0  0  0
   24.0036   30.5068   37.7890 C   0  0  2  0  0  0  0  0  0  0  0  0
   16.6438   27.8942   35.3180 C   0  0  2  0  0  0  0  0  0  0  0  0
   16.1601   28.5375   36.5501 N   0  0  0  0  0  0  0  0  0  0  0  0
   22.1130   26.2448   37.8665 C   0  0  0  0  0  0  0  0  0  0  0  0
   24.1380   31.7163   38.7961 C   0  0  2  0  0  0  0  0  0  0  0  0
   23.8870   31.2830   40.1219 O   0  0  0  0  0  0  0  0  0  0  0  0
   16.2063   26.3986   35.2876 C   0  0  1  0  0  0  0  0  0  0  0  0
   14.7744   26.2927   35.3914 O   0  0  0  0  0  0  0  0  0  0  0  0
   20.5748   26.2880   37.5593 C   0  0  2  0  0  0  0  0  0  0  0  0
   20.1114   24.9815   37.0109 N   0  0  0  0  0  0  0  0  0  0  0  0
   23.0971   32.8222   38.3768 C   0  0  1  0  0  0  0  0  0  0  0  0
   23.1466   33.9701   39.3045 N   0  0  0  0  0  0  0  0  0  0  0  0
   16.7316   25.7633   33.9789 C   0  0  2  0  0  0  0  0  0  0  0  0
   16.3298   24.3909   33.9253 O   0  0  0  0  0  0  0  0  0  0  0  0
   20.2459   27.4104   36.5291 C   0  0  2  0  0  0  0  0  0  0  0  0
   23.4087   33.2873   36.9191 C   0  0  1  0  0  0  0  0  0  0  0  0
   24.7137   33.8565   36.8978 O   0  0  0  0  0  0  0  0  0  0  0  0
   18.3136   25.9107   33.9380 C   0  0  2  0  0  0  0  0  0  0  0  0
   18.7085   27.3354   34.0050 O   0  0  0  0  0  0  0  0  0  0  0  0
   20.7284   28.7752   37.0912 C   0  0  2  0  0  0  0  0  0  0  0  0
   20.4447   29.7782   36.1179 O   0  0  0  0  0  0  0  0  0  0  0  0
   23.3525   32.0469   35.9705 C   0  0  0  0  0  0  0  0  0  0  0  0
   24.2813   30.9821   36.4194 O   0  0  0  0  0  0  0  0  0  0  0  0
   18.9392   25.3022   32.6501 C   0  0  2  0  0  0  0  0  0  0  0  0
   18.1010   25.6058   31.5296 O   0  0  0  0  0  0  0  0  0  0  0  0
   22.2549   28.7838   37.3522 C   0  0  1  0  0  0  0  0  0  0  0  0
   22.6064   30.0849   37.8984 O   0  0  0  0  0  0  0  0  0  0  0  0
   19.0721   23.7977   32.7354 C   0  0  0  0  0  0  0  0  0  0  0  0
   22.4251   34.3509   36.4292 C   0  0  0  0  0  0  0  0  0  0  0  0
   22.0217   33.8183   40.2597 C   0  0  0  0  0  0  0  0  0  0  0  0
  1  2  1  1  0  0  0
  1  6  1  0  0  0  0
  1 23  1  0  0  0  0
  3  4  1  6  0  0  0
  3  8  1  0  0  0  0
  3 30  1  0  0  0  0
  5  9  1  0  0  0  0
  5 27  1  0  0  0  0
  5 31  1  6  0  0  0
  6  7  1  1  0  0  0
  6 11  1  0  0  0  0
  8 13  1  0  0  0  0
  9 10  1  1  0  0  0
  9 15  1  0  0  0  0
 11 12  1  6  0  0  0
 11 17  1  0  0  0  0
 13 14  1  6  0  0  0
 13 19  1  0  0  0  0
 15 16  1  1  0  0  0
 15 20  1  0  0  0  0
 16 34  1  0  0  0  0
 17 18  1  1  0  0  0
 17 22  1  0  0  0  0
 19  2  1  1  0  0  0
 19 24  1  0  0  0  0
 20 21  1  6  0  0  0
 20 26  1  0  0  0  0
 20 33  1  0  0  0  0
 22 23  1  6  0  0  0
 22 28  1  0  0  0  0
 24 25  1  6  0  0  0
 24 30  1  0  0  0  0
 26 27  1  0  0  0  0
 28 29  1  6  0  0  0
 28 32  1  0  0  0  0
 30 31  1  1  0  0  0
M  END
>  <CHROM.1>
-176.41864595,-162.13552704,-99.74947083,39.75419857,85.58929249,-164.68891846
20.60814672,28.79945366,36.41219839,2.35299828,0.49397995,-3.04424495

>  <Name>
ligand

>  <RI>
0

>  <Rbt.Current_Directory>
/home/itssahil/PROJECTS/Mol_Feturizer/New_Systems/rnas/4p3s

>  <Rbt.Executable>
rbdock ($Id: //depot/dev/client3/rdock/2013.1/src/exe/rbdock.cxx#4 $)

>  <Rbt.Library>
libRbt.so (2013.1, Build901 2013/11/27)

>  <Rbt.Parameter_File>
/export/apps/rDock/src/rDock_2013.1_src/data/scripts/dock_solv.prm

>  <Rbt.Receptor>
prm/pocket_docking_4.prm

>  <SCORE>
-18.9938

>  <SCORE.INTER>
-14.8449

>  <SCORE.INTER.CONST>
1

>  <SCORE.INTER.POLAR>
0

>  <SCORE.INTER.ROT>
6

>  <SCORE.INTER.SOLV>
21.1696

>  <SCORE.INTER.VDW>
-24.5531

>  <SCORE.INTER.norm>
-0.436615

>  <SCORE.INTRA>
-4.14892

>  <SCORE.INTRA.DIHEDRAL>
-8.12836

>  <SCORE.INTRA.DIHEDRAL.0>
15.8194

>  <SCORE.INTRA.POLAR>
0

>  <SCORE.INTRA.POLAR.0>
0

>  <SCORE.INTRA.REPUL>
0

>  <SCORE.INTRA.REPUL.0>
0

>  <SCORE.INTRA.SOLV>
-0.0150269

>  <SCORE.INTRA.SOLV.lig_0>
-71.9159

>  <SCORE.INTRA.VDW>
-0.0772273

>  <SCORE.INTRA.VDW.0>
-3.53918

>  <SCORE.INTRA.norm>
-0.122027

>  <SCORE.RESTR>
0

>  <SCORE.RESTR.CAVITY>
0

>  <SCORE.RESTR.norm>
0

>  <SCORE.SYSTEM>
0

>  <SCORE.SYSTEM.CONST>
0

>  <SCORE.SYSTEM.DIHEDRAL>
0

>  <SCORE.SYSTEM.SOLV>
0

>  <SCORE.SYSTEM.norm>
0

>  <SCORE.heavy>
34

>  <SCORE.norm>
-0.558642

>  <RMSD>
0.976

$$$$
ligand
 OpenBabel01301917533D
libRbt.so/2013.1/901 2013/11/27
 34 36  0  0  0  0  0  0  0  0999 V2000
   18.3844   27.7590   34.6466 C   0  0  2  0  0  0  0  0  0  0  0  0
   18.8514   27.2699   35.9079 O   0  0  0  0  0  0  0  0  0  0  0  0
   22.3006   28.1143   38.3146 C   0  0  2  0  0  0  0  0  0  0  0  0
   23.6894   28.1988   38.7863 N   0  0  0  0  0  0  0  0  0  0  0  0
   22.8178   31.2884   36.2603 C   0  0  2  0  0  0  0  0  0  0  0  0
   16.8232   27.5573   34.5927 C   0  0  2  0  0  0  0  0  0  0  0  0
   16.1630   28.2741   35.6956 N   0  0  0  0  0  0  0  0  0  0  0  0
   21.9992   26.6087   37.9809 C   0  0  0  0  0  0  0  0  0  0  0  0
   23.6763   32.4060   36.9741 C   0  0  2  0  0  0  0  0  0  0  0  0
   24.8127   31.8314   37.5962 O   0  0  0  0  0  0  0  0  0  0  0  0
   16.4741   26.0397   34.6556 C   0  0  1  0  0  0  0  0  0  0  0  0
   15.0478   25.8507   34.6068 O   0  0  0  0  0  0  0  0  0  0  0  0
   20.5098   26.5167   37.4956 C   0  0  2  0  0  0  0  0  0  0  0  0
   20.1541   25.1099   37.1539 N   0  0  0  0  0  0  0  0  0  0  0  0
   22.7656   33.1139   38.0474 C   0  0  1  0  0  0  0  0  0  0  0  0
   23.5226   34.1497   38.7789 N   0  0  0  0  0  0  0  0  0  0  0  0
   17.1842   25.3268   33.4810 C   0  0  2  0  0  0  0  0  0  0  0  0
   16.8664   23.9318   33.5132 O   0  0  0  0  0  0  0  0  0  0  0  0
   20.2786   27.4123   36.2411 C   0  0  2  0  0  0  0  0  0  0  0  0
   21.5319   33.7471   37.3295 C   0  0  1  0  0  0  0  0  0  0  0  0
   22.0011   34.7279   36.4100 O   0  0  0  0  0  0  0  0  0  0  0  0
   18.7496   25.5722   33.6050 C   0  0  2  0  0  0  0  0  0  0  0  0
   19.0561   27.0198   33.5803 O   0  0  0  0  0  0  0  0  0  0  0  0
   20.6499   28.8799   36.5872 C   0  0  2  0  0  0  0  0  0  0  0  0
   20.4598   29.6710   35.4160 O   0  0  0  0  0  0  0  0  0  0  0  0
   20.7616   32.6237   36.5640 C   0  0  0  0  0  0  0  0  0  0  0  0
   21.6490   31.9142   35.6115 O   0  0  0  0  0  0  0  0  0  0  0  0
   19.5552   24.8943   32.4597 C   0  0  2  0  0  0  0  0  0  0  0  0
   18.8863   25.1211   31.2142 O   0  0  0  0  0  0  0  0  0  0  0  0
   22.1319   29.0135   37.0164 C   0  0  1  0  0  0  0  0  0  0  0  0
   22.3770   30.4090   37.3440 O   0  0  0  0  0  0  0  0  0  0  0  0
   19.6776   23.3991   32.6547 C   0  0  0  0  0  0  0  0  0  0  0  0
   20.5849   34.4394   38.3107 C   0  0  0  0  0  0  0  0  0  0  0  0
   23.5265   33.7680   40.2124 C   0  0  0  0  0  0  0  0  0  0  0  0
  1  2  1  1  0  0  0
  1  6  1  0  0  0  0
  1 23  1  0  0  0  0
  3  4  1  6  0  0  0
  3  8  1  0  0  0  0
  3 30  1  0  0  0  0
  5  9  1  0  0  0  0
  5 27  1  0  0  0  0
  5 31  1  1  0  0  0
  6  7  1  1  0  0  0
  6 11  1  0  0  0  0
  8 13  1  0  0  0  0
  9 10  1  1  0  0  0
  9 15  1  0  0  0  0
 11 12  1  6  0  0  0
 11 17  1  0  0  0  0
 13 14  1  6  0  0  0
 13 19  1  0  0  0  0
 15 16  1  6  0  0  0
 15 20  1  0  0  0  0
 16 34  1  0  0  0  0
 17 18  1  1  0  0  0
 17 22  1  0  0  0  0
 19  2  1  1  0  0  0
 19 24  1  0  0  0  0
 20 21  1  6  0  0  0
 20 26  1  0  0  0  0
 20 33  1  0  0  0  0
 22 23  1  6  0  0  0
 22 28  1  0  0  0  0
 24 25  1  6  0  0  0
 24 30  1  0  0  0  0
 26 27  1  0  0  0  0
 28 29  1  6  0  0  0
 28 32  1  0  0  0  0
 30 31  1  1  0  0  0
M  END
>  <CHROM.1>
-176.64116571,-167.64099929,-119.16456430,43.64528470,155.01870711,-151.60583002
20.40045300,28.88863748,36.00275703,2.18390326,0.52623852,-2.98366034

>  <Name>
ligand

>  <RI>
0

>  <Rbt.Current_Directory>
/home/itssahil/PROJECTS/Mol_Feturizer/New_Systems/rnas/4p3s

>  <Rbt.Executable>
rbdock ($Id: //depot/dev/client3/rdock/2013.1/src/exe/rbdock.cxx#4 $)

>  <Rbt.Library>
libRbt.so (2013.1, Build901 2013/11/27)

>  <Rbt.Parameter_File>
/export/apps/rDock/src/rDock_2013.1_src/data/scripts/dock_solv.prm

>  <Rbt.Receptor>
prm/pocket_docking_3.prm

>  <SCORE>
-16.2947

>  <SCORE.INTER>
-12.6117

>  <SCORE.INTER.CONST>
1

>  <SCORE.INTER.POLAR>
0

>  <SCORE.INTER.ROT>
6

>  <SCORE.INTER.SOLV>
21.3645

>  <SCORE.INTER.VDW>
-23.1293

>  <SCORE.INTER.norm>
-0.370933

>  <SCORE.INTRA>
-3.68296

>  <SCORE.INTRA.DIHEDRAL>
-6.93015

>  <SCORE.INTRA.DIHEDRAL.0>
15.8194

>  <SCORE.INTRA.POLAR>
0

>  <SCORE.INTRA.POLAR.0>
0

>  <SCORE.INTRA.REPUL>
0

>  <SCORE.INTRA.REPUL.0>
0

>  <SCORE.INTRA.SOLV>
-1.20574

>  <SCORE.INTRA.SOLV.lig_0>
-71.9159

>  <SCORE.INTRA.VDW>
0.384985

>  <SCORE.INTRA.VDW.0>
-3.53918

>  <SCORE.INTRA.norm>
-0.108322

>  <SCORE.RESTR>
0

>  <SCORE.RESTR.CAVITY>
0

>  <SCORE.RESTR.norm>
0

>  <SCORE.SYSTEM>
0

>  <SCORE.SYSTEM.CONST>
0

>  <SCORE.SYSTEM.DIHEDRAL>
0

>  <SCORE.SYSTEM.SOLV>
0

>  <SCORE.SYSTEM.norm>
0

>  <SCORE.heavy>
34

>  <SCORE.norm>
-0.479255

>  <RMSD>
1.012

$$$$
ligand
 OpenBabel01301917533D
libRbt.so/2013.1/901 2013/11/27
 34 36  0  0  0  0  0  0  0  0999 V2000
   18.1224   27.9261   35.3769 C   0  0  2  0  0  0  0  0  0  0  0  0
   18.7528   27.2343   36.4596 O   0  0  0  0  0  0  0  0  0  0  0  0
   22.5202   27.6785   38.4625 C   0  0  2  0  0  0  0  0  0  0  0  0
   23.9628   27.6904   38.7406 N   0  0  0  0  0  0  0  0  0  0  0  0
   23.8932   30.5479   37.8169 C   0  0  2  0  0  0  0  0  0  0  0  0
   16.5685   27.6945   35.4888 C   0  0  2  0  0  0  0  0  0  0  0  0
   16.0559   28.1864   36.7778 N   0  0  0  0  0  0  0  0  0  0  0  0
   22.1483   26.2499   37.9241 C   0  0  0  0  0  0  0  0  0  0  0  0
   23.9808   31.7747   38.8083 C   0  0  2  0  0  0  0  0  0  0  0  0
   23.7001   31.3578   40.1333 O   0  0  0  0  0  0  0  0  0  0  0  0
   16.2365   26.1808   35.3232 C   0  0  1  0  0  0  0  0  0  0  0  0
   14.8170   25.9645   35.4249 O   0  0  0  0  0  0  0  0  0  0  0  0
   20.6041   26.2323   37.6458 C   0  0  2  0  0  0  0  0  0  0  0  0
   20.1791   24.9021   37.1240 N   0  0  0  0  0  0  0  0  0  0  0  0
   22.9349   32.8573   38.3432 C   0  0  1  0  0  0  0  0  0  0  0  0
   22.9408   34.0200   39.2538 N   0  0  0  0  0  0  0  0  0  0  0  0
   16.7891   25.7068   33.9586 C   0  0  2  0  0  0  0  0  0  0  0  0
   16.4838   24.3200   33.7809 O   0  0  0  0  0  0  0  0  0  0  0  0
   20.2150   27.3272   36.6069 C   0  0  2  0  0  0  0  0  0  0  0  0
   23.2793   33.3050   36.8875 C   0  0  1  0  0  0  0  0  0  0  0  0
   24.5753   33.8946   36.8930 O   0  0  0  0  0  0  0  0  0  0  0  0
   18.3562   25.9691   33.9224 C   0  0  2  0  0  0  0  0  0  0  0  0
   18.6512   27.4060   34.1182 O   0  0  0  0  0  0  0  0  0  0  0  0
   20.6571   28.7166   37.1412 C   0  0  2  0  0  0  0  0  0  0  0  0
   20.3185   29.6946   36.1601 O   0  0  0  0  0  0  0  0  0  0  0  0
   23.2687   32.0495   35.9573 C   0  0  0  0  0  0  0  0  0  0  0  0
   24.2012   31.0066   36.4481 O   0  0  0  0  0  0  0  0  0  0  0  0
   19.0072   25.5270   32.5803 C   0  0  2  0  0  0  0  0  0  0  0  0
   18.2148   26.0102   31.4900 O   0  0  0  0  0  0  0  0  0  0  0  0
   22.1869   28.7848   37.3729 C   0  0  1  0  0  0  0  0  0  0  0  0
   22.5002   30.1055   37.8946 O   0  0  0  0  0  0  0  0  0  0  0  0
   19.0965   24.0219   32.4572 C   0  0  0  0  0  0  0  0  0  0  0  0
   22.2932   34.3451   36.3541 C   0  0  0  0  0  0  0  0  0  0  0  0
   21.8255   33.8375   40.2148 C   0  0  0  0  0  0  0  0  0  0  0  0
  1  2  1  1  0  0  0
  1  6  1  0  0  0  0
  1 23  1  0  0  0  0
  3  4  1  6  0  0  0
  3  8  1  0  0  0  0
  3 30  1  0  0  0  0
  5  9  1  0  0  0  0
  5 27  1  0  0  0  0
  5 31  1  6  0  0  0
  6  7  1  1  0  0  0
  6 11  1  0  0  0  0
  8 13  1  0  0  0  0
  9 10  1  1  0  0  0
  9 15  1  0  0  0  0
 11 12  1  6  0  0  0
 11 17  1  0  0  0  0
 13 14  1  6  0  0  0
 13 19  1  0  0  0  0
 15 16  1  1  0  0  0
 15 20  1  0  0  0  0
 16 34  1  0  0  0  0
 17 18  1  1  0  0  0
 17 22  1  0  0  0  0
 19  2  1  1  0  0  0
 19 24  1  0  0  0  0
 20 21  1  6  0  0  0
 20 26  1  0  0  0  0
 20 33  1  0  0  0  0
 22 23  1  6  0  0  0
 22 28  1  0  0  0  0
 24 25  1  6  0  0  0
 24 30  1  0  0  0  0
 26 27  1  0  0  0  0
 28 29  1  6  0  0  0
 28 32  1  0  0  0  0
 30 31  1  1  0  0  0
M  END
>  <CHROM.1>
-178.15026787,-167.51532628,-97.51658487,46.51422584,82.42796401,-164.02994919
20.55864694,28.79108635,36.42823696,2.38461663,0.57380900,-3.13263631

>  <Name>
ligand

>  <RI>
0

>  <Rbt.Current_Directory>
/home/itssahil/PROJECTS/Mol_Feturizer/New_Systems/rnas/4p3s

>  <Rbt.Executable>
rbdock ($Id: //depot/dev/client3/rdock/2013.1/src/exe/rbdock.cxx#4 $)

>  <Rbt.Library>
libRbt.so (2013.1, Build901 2013/11/27)

>  <Rbt.Parameter_File>
/export/apps/rDock/src/rDock_2013.1_src/data/scripts/dock_solv.prm

>  <Rbt.Receptor>
prm/pocket_docking_3.prm

>  <SCORE>
-18.9625

>  <SCORE.INTER>
-14.099

>  <SCORE.INTER.CONST>
1

>  <SCORE.INTER.POLAR>
0

>  <SCORE.INTER.ROT>
6

>  <SCORE.INTER.SOLV>
21.6195

>  <SCORE.INTER.VDW>
-24.2058

>  <SCORE.INTER.norm>
-0.414676

>  <SCORE.INTRA>
-4.8635

>  <SCORE.INTRA.DIHEDRAL>
-10.146

>  <SCORE.INTRA.DIHEDRAL.0>
15.8194

>  <SCORE.INTRA.POLAR>
0

>  <SCORE.INTRA.POLAR.0>
0

>  <SCORE.INTRA.REPUL>
0

>  <SCORE.INTRA.REPUL.0>
0

>  <SCORE.INTRA.SOLV>
-0.341938

>  <SCORE.INTRA.SOLV.lig_0>
-71.9159

>  <SCORE.INTRA.VDW>
0.380476

>  <SCORE.INTRA.VDW.0>
-3.53918

>  <SCORE.INTRA.norm>
-0.143044

>  <SCORE.RESTR>
0

>  <SCORE.RESTR.CAVITY>
0

>  <SCORE.RESTR.norm>
0

>  <SCORE.SYSTEM>
0

>  <SCORE.SYSTEM.CONST>
0

>  <SCORE.SYSTEM.DIHEDRAL>
0

>  <SCORE.SYSTEM.SOLV>
0

>  <SCORE.SYSTEM.norm>
0

>  <SCORE.heavy>
34

>  <SCORE.norm>
-0.55772

>  <RMSD>
1.042

$$$$
ligand
 OpenBabel01301917533D
libRbt.so/2013.1/901 2013/11/27
 34 36  0  0  0  0  0  0  0  0999 V2000
   18.4895   27.7311   34.6044 C   0  0  2  0  0  0  0  0  0  0  0  0
   18.9282   27.2182   35.8664 O   0  0  0  0  0  0  0  0  0  0  0  0
   22.3601   27.9508   38.3336 C   0  0  2  0  0  0  0  0  0  0  0  0
   23.7438   27.9994   38.8251 N   0  0  0  0  0  0  0  0  0  0  0  0
   22.8724   31.1740   36.3272 C   0  0  2  0  0  0  0  0  0  0  0  0
   16.9236   27.5774   34.5329 C   0  0  2  0  0  0  0  0  0  0  0  0
   16.2739   28.3055   35.6347 N   0  0  0  0  0  0  0  0  0  0  0  0
   22.0342   26.4577   37.9682 C   0  0  0  0  0  0  0  0  0  0  0  0
   23.7372   32.2924   37.0319 C   0  0  2  0  0  0  0  0  0  0  0  0
   24.9095   31.7274   37.5933 O   0  0  0  0  0  0  0  0  0  0  0  0
   16.5279   26.0707   34.5800 C   0  0  1  0  0  0  0  0  0  0  0  0
   15.0971   25.9256   34.5151 O   0  0  0  0  0  0  0  0  0  0  0  0
   20.5500   26.4039   37.4617 C   0  0  2  0  0  0  0  0  0  0  0  0
   20.1718   25.0107   37.0893 N   0  0  0  0  0  0  0  0  0  0  0  0
   22.8577   32.9564   38.1579 C   0  0  1  0  0  0  0  0  0  0  0  0
   23.6235   33.9906   38.8825 N   0  0  0  0  0  0  0  0  0  0  0  0
   17.2282   25.3456   33.4070 C   0  0  2  0  0  0  0  0  0  0  0  0
   16.8679   23.9608   33.4247 O   0  0  0  0  0  0  0  0  0  0  0  0
   20.3532   27.3265   36.2210 C   0  0  2  0  0  0  0  0  0  0  0  0
   21.5832   33.5802   37.5062 C   0  0  1  0  0  0  0  0  0  0  0  0
   21.9945   34.5914   36.5920 O   0  0  0  0  0  0  0  0  0  0  0  0
   18.7990   25.5423   33.5490 C   0  0  2  0  0  0  0  0  0  0  0  0
   19.1495   26.9801   33.5391 O   0  0  0  0  0  0  0  0  0  0  0  0
   20.7481   28.7800   36.5991 C   0  0  2  0  0  0  0  0  0  0  0  0
   20.5893   29.5959   35.4403 O   0  0  0  0  0  0  0  0  0  0  0  0
   20.8044   32.4589   36.7461 C   0  0  0  0  0  0  0  0  0  0  0  0
   21.6656   31.7901   35.7416 O   0  0  0  0  0  0  0  0  0  0  0  0
   19.5956   24.8491   32.4066 C   0  0  2  0  0  0  0  0  0  0  0  0
   18.9888   25.1658   31.1489 O   0  0  0  0  0  0  0  0  0  0  0  0
   22.2265   28.8767   37.0502 C   0  0  1  0  0  0  0  0  0  0  0  0
   22.4941   30.2609   37.4067 O   0  0  0  0  0  0  0  0  0  0  0  0
   19.6064   23.3431   32.5499 C   0  0  0  0  0  0  0  0  0  0  0  0
   20.6639   34.2299   38.5414 C   0  0  0  0  0  0  0  0  0  0  0  0
   23.5977   33.6353   40.3226 C   0  0  0  0  0  0  0  0  0  0  0  0
  1  2  1  1  0  0  0
  1  6  1  0  0  0  0
  1 23  1  0  0  0  0
  3  4  1  6  0  0  0
  3  8  1  0  0  0  0
  3 30  1  0  0  0  0
  5  9  1  0  0  0  0
  5 27  1  0  0  0  0
  5 31  1  1  0  0  0
  6  7  1  1  0  0  0
  6 11  1  0  0  0  0
  8 13  1  0  0  0  0
  9 10  1  1  0  0  0
  9 15  1  0  0  0  0
 11 12  1  6  0  0  0
 11 17  1  0  0  0  0
 13 14  1  6  0  0  0
 13 19  1  0  0  0  0
 15 16  1  6  0  0  0
 15 20  1  0  0  0  0
 16 34  1  0  0  0  0
 17 18  1  1  0  0  0
 17 22  1  0  0  0  0
 19  2  1  1  0  0  0
 19 24  1  0  0  0  0
 20 21  1  6  0  0  0
 20 26  1  0  0  0  0
 20 33  1  0  0  0  0
 22 23  1  6  0  0  0
 22 28  1  0  0  0  0
 24 25  1  6  0  0  0
 24 30  1  0  0  0  0
 26 27  1  0  0  0  0
 28 29  1  6  0  0  0
 28 32  1  0  0  0  0
 30 31  1  1  0  0  0
M  END
>  <CHROM.1>
-176.04271315,-167.21829421,-123.79399491,46.76193837,159.36578887,-153.30522633
20.46312849,28.80563825,36.01904557,2.18687723,0.52528534,-2.95613528

>  <Name>
ligand

>  <RI>
0

>  <Rbt.Current_Directory>
/home/itssahil/PROJECTS/Mol_Feturizer/New_Systems/rnas/4p3s

>  <Rbt.Executable>
rbdock ($Id: //depot/dev/client3/rdock/2013.1/src/exe/rbdock.cxx#4 $)

>  <Rbt.Library>
libRbt.so (2013.1, Build901 2013/11/27)

>  <Rbt.Parameter_File>
/export/apps/rDock/src/rDock_2013.1_src/data/scripts/dock_solv.prm

>  <Rbt.Receptor>
prm/pocket_docking_3.prm

>  <SCORE>
-16.2075

>  <SCORE.INTER>
-12.47

>  <SCORE.INTER.CONST>
1

>  <SCORE.INTER.POLAR>
0

>  <SCORE.INTER.ROT>
6

>  <SCORE.INTER.SOLV>
21.9214

>  <SCORE.INTER.VDW>
-23.2205

>  <SCORE.INTER.norm>
-0.366765

>  <SCORE.INTRA>
-3.73747

>  <SCORE.INTRA.DIHEDRAL>
-8.23469

>  <SCORE.INTRA.DIHEDRAL.0>
15.8194

>  <SCORE.INTRA.POLAR>
0

>  <SCORE.INTRA.POLAR.0>
0

>  <SCORE.INTRA.REPUL>
0

>  <SCORE.INTRA.REPUL.0>
0

>  <SCORE.INTRA.SOLV>
-1.29436

>  <SCORE.INTRA.SOLV.lig_0>
-71.9159

>  <SCORE.INTRA.VDW>
1.02706

>  <SCORE.INTRA.VDW.0>
-3.53918

>  <SCORE.INTRA.norm>
-0.109925

>  <SCORE.RESTR>
0

>  <SCORE.RESTR.CAVITY>
0

>  <SCORE.RESTR.norm>
0

>  <SCORE.SYSTEM>
0

>  <SCORE.SYSTEM.CONST>
0

>  <SCORE.SYSTEM.DIHEDRAL>
0

>  <SCORE.SYSTEM.SOLV>
0

>  <SCORE.SYSTEM.norm>
0

>  <SCORE.heavy>
34

>  <SCORE.norm>
-0.47669

>  <RMSD>
1.066

$$$$
ligand
 OpenBabel01301917533D
libRbt.so/2013.1/901 2013/11/27
 34 36  0  0  0  0  0  0  0  0999 V2000
   18.4762   27.7056   34.6559 C   0  0  2  0  0  0  0  0  0  0  0  0
   18.9432   27.2059   35.9131 O   0  0  0  0  0  0  0  0  0  0  0  0
   22.4665   27.8301   38.2792 C   0  0  2  0  0  0  0  0  0  0  0  0
   23.8668   27.8495   38.7235 N   0  0  0  0  0  0  0  0  0  0  0  0
   23.9544   30.6535   37.1727 C   0  0  2  0  0  0  0  0  0  0  0  0
   16.9082   27.5598   34.6250 C   0  0  2  0  0  0  0  0  0  0  0  0
   16.2898   28.3049   35.7332 N   0  0  0  0  0  0  0  0  0  0  0  0
   22.1104   26.3517   37.8835 C   0  0  0  0  0  0  0  0  0  0  0  0
   24.0582   31.9829   38.0196 C   0  0  2  0  0  0  0  0  0  0  0  0
   23.9052   31.7003   39.3999 O   0  0  0  0  0  0  0  0  0  0  0  0
   16.5059   26.0559   34.7006 C   0  0  1  0  0  0  0  0  0  0  0  0
   15.0732   25.9180   34.6728 O   0  0  0  0  0  0  0  0  0  0  0  0
   20.6091   26.3286   37.4275 C   0  0  2  0  0  0  0  0  0  0  0  0
   20.2017   24.9510   37.0296 N   0  0  0  0  0  0  0  0  0  0  0  0
   22.9251   32.9640   37.5342 C   0  0  1  0  0  0  0  0  0  0  0  0
   22.9444   34.2175   38.3146 N   0  0  0  0  0  0  0  0  0  0  0  0
   17.1733   25.3126   33.5199 C   0  0  2  0  0  0  0  0  0  0  0  0
   16.8062   23.9300   33.5638 O   0  0  0  0  0  0  0  0  0  0  0  0
   20.3808   27.2884   36.2208 C   0  0  2  0  0  0  0  0  0  0  0  0
   23.1296   33.2656   36.0158 C   0  0  1  0  0  0  0  0  0  0  0  0
   24.3903   33.9063   35.8503 O   0  0  0  0  0  0  0  0  0  0  0  0
   18.7480   25.5023   33.6207 C   0  0  2  0  0  0  0  0  0  0  0  0
   19.1058   26.9378   33.5842 O   0  0  0  0  0  0  0  0  0  0  0  0
   20.8059   28.7260   36.6257 C   0  0  2  0  0  0  0  0  0  0  0  0
   20.6171   29.5764   35.4965 O   0  0  0  0  0  0  0  0  0  0  0  0
   23.1086   31.9176   35.2259 C   0  0  0  0  0  0  0  0  0  0  0  0
   24.1289   30.9739   35.7424 O   0  0  0  0  0  0  0  0  0  0  0  0
   19.5125   24.7905   32.4677 C   0  0  2  0  0  0  0  0  0  0  0  0
   18.8101   24.9979   31.2374 O   0  0  0  0  0  0  0  0  0  0  0  0
   22.2999   28.7936   37.0277 C   0  0  1  0  0  0  0  0  0  0  0  0
   22.5962   30.1640   37.4135 O   0  0  0  0  0  0  0  0  0  0  0  0
   19.6244   23.2986   32.6919 C   0  0  0  0  0  0  0  0  0  0  0  0
   22.0527   34.1997   35.4620 C   0  0  0  0  0  0  0  0  0  0  0  0
   21.9569   34.0729   39.4123 C   0  0  0  0  0  0  0  0  0  0  0  0
  1  2  1  1  0  0  0
  1  6  1  0  0  0  0
  1 23  1  0  0  0  0
  3  4  1  6  0  0  0
  3  8  1  0  0  0  0
  3 30  1  0  0  0  0
  5  9  1  0  0  0  0
  5 27  1  0  0  0  0
  5 31  1  6  0  0  0
  6  7  1  1  0  0  0
  6 11  1  0  0  0  0
  8 13  1  0  0  0  0
  9 10  1  1  0  0  0
  9 15  1  0  0  0  0
 11 12  1  6  0  0  0
 11 17  1  0  0  0  0
 13 14  1  6  0  0  0
 13 19  1  0  0  0  0
 15 16  1  1  0  0  0
 15 20  1  0  0  0  0
 16 34  1  0  0  0  0
 17 18  1  1  0  0  0
 17 22  1  0  0  0  0
 19  2  1  1  0  0  0
 19 24  1  0  0  0  0
 20 21  1  6  0  0  0
 20 26  1  0  0  0  0
 20 33  1  0  0  0  0
 22 23  1  6  0  0  0
 22 28  1  0  0  0  0
 24 25  1  6  0  0  0
 24 30  1  0  0  0  0
 26 27  1  0  0  0  0
 28 29  1  6  0  0  0
 28 32  1  0  0  0  0
 30 31  1  1  0  0  0
M  END
>  <CHROM.1>
-177.14481990,-164.45849837,-95.36260776,41.72657144,95.36506014,-165.63604788
20.71260196,28.69050271,35.89468383,2.37097301,0.65767491,3.04411295

>  <Name>
ligand

>  <RI>
0

>  <Rbt.Current_Directory>
/home/itssahil/PROJECTS/Mol_Feturizer/New_Systems/rnas/4p3s

>  <Rbt.Executable>
rbdock ($Id: //depot/dev/client3/rdock/2013.1/src/exe/rbdock.cxx#4 $)

>  <Rbt.Library>
libRbt.so (2013.1, Build901 2013/11/27)

>  <Rbt.Parameter_File>
/export/apps/rDock/src/rDock_2013.1_src/data/scripts/dock_solv.prm

>  <Rbt.Receptor>
prm/blind_docking_80.prm

>  <SCORE>
-11.4044

>  <SCORE.INTER>
-9.71031

>  <SCORE.INTER.CONST>
1

>  <SCORE.INTER.POLAR>
0

>  <SCORE.INTER.ROT>
6

>  <SCORE.INTER.SOLV>
22.3042

>  <SCORE.INTER.VDW>
-21.5083

>  <SCORE.INTER.norm>
-0.285597

>  <SCORE.INTRA>
-3.82177

>  <SCORE.INTRA.DIHEDRAL>
-7.1831

>  <SCORE.INTRA.DIHEDRAL.0>
15.8194

>  <SCORE.INTRA.POLAR>
0

>  <SCORE.INTRA.POLAR.0>
0

>  <SCORE.INTRA.REPUL>
0

>  <SCORE.INTRA.REPUL.0>
0

>  <SCORE.INTRA.SOLV>
-0.402871

>  <SCORE.INTRA.SOLV.lig_0>
-71.9159

>  <SCORE.INTRA.VDW>
-0.0287864

>  <SCORE.INTRA.VDW.0>
-3.53918

>  <SCORE.INTRA.norm>
-0.112405

>  <SCORE.RESTR>
2.12764

>  <SCORE.RESTR.CAVITY>
2.12764

>  <SCORE.RESTR.norm>
0.0625776

>  <SCORE.SYSTEM>
0

>  <SCORE.SYSTEM.CONST>
0

>  <SCORE.SYSTEM.DIHEDRAL>
0

>  <SCORE.SYSTEM.SOLV>
0

>  <SCORE.SYSTEM.norm>
0

>  <SCORE.heavy>
34

>  <SCORE.norm>
-0.335425

>  <RMSD>
1.069

$$$$
ligand
 OpenBabel01301917533D
libRbt.so/2013.1/901 2013/11/27
 34 36  0  0  0  0  0  0  0  0999 V2000
   18.3670   27.6950   34.7065 C   0  0  2  0  0  0  0  0  0  0  0  0
   18.8561   27.1979   35.9562 O   0  0  0  0  0  0  0  0  0  0  0  0
   22.4410   27.8054   38.2326 C   0  0  2  0  0  0  0  0  0  0  0  0
   23.8511   27.8103   38.6451 N   0  0  0  0  0  0  0  0  0  0  0  0
   23.9827   30.5402   37.1966 C   0  0  2  0  0  0  0  0  0  0  0  0
   16.8036   27.5052   34.6841 C   0  0  2  0  0  0  0  0  0  0  0  0
   16.1716   28.2229   35.8028 N   0  0  0  0  0  0  0  0  0  0  0  0
   22.0539   26.3265   37.8688 C   0  0  0  0  0  0  0  0  0  0  0  0
   24.1345   31.7532   38.1972 C   0  0  2  0  0  0  0  0  0  0  0  0
   23.9004   31.3257   39.5280 O   0  0  0  0  0  0  0  0  0  0  0  0
   16.4444   25.9900   34.7489 C   0  0  1  0  0  0  0  0  0  0  0  0
   15.0161   25.8118   34.7288 O   0  0  0  0  0  0  0  0  0  0  0  0
   20.5425   26.3192   37.4470 C   0  0  2  0  0  0  0  0  0  0  0  0
   20.1057   24.9418   37.0805 N   0  0  0  0  0  0  0  0  0  0  0  0
   23.0913   32.8607   37.7878 C   0  0  1  0  0  0  0  0  0  0  0  0
   23.1569   34.0120   38.7104 N   0  0  0  0  0  0  0  0  0  0  0  0
   17.1248   25.2761   33.5575 C   0  0  2  0  0  0  0  0  0  0  0  0
   16.7973   23.8834   33.5914 O   0  0  0  0  0  0  0  0  0  0  0  0
   20.3014   27.2632   36.2304 C   0  0  2  0  0  0  0  0  0  0  0  0
   23.3843   33.3192   36.3242 C   0  0  1  0  0  0  0  0  0  0  0  0
   24.6905   33.8844   36.2829 O   0  0  0  0  0  0  0  0  0  0  0  0
   18.6942   25.5094   33.6501 C   0  0  2  0  0  0  0  0  0  0  0  0
   19.0110   26.9548   33.6241 O   0  0  0  0  0  0  0  0  0  0  0  0
   20.7570   28.7004   36.6024 C   0  0  2  0  0  0  0  0  0  0  0  0
   20.5554   29.5356   35.4642 O   0  0  0  0  0  0  0  0  0  0  0  0
   23.3114   32.0754   35.3813 C   0  0  0  0  0  0  0  0  0  0  0  0
   24.2431   31.0095   35.8215 O   0  0  0  0  0  0  0  0  0  0  0  0
   19.4710   24.8297   32.4860 C   0  0  2  0  0  0  0  0  0  0  0  0
   18.7732   25.0577   31.2567 O   0  0  0  0  0  0  0  0  0  0  0  0
   22.2605   28.7514   36.9698 C   0  0  1  0  0  0  0  0  0  0  0  0
   22.5859   30.1231   37.3267 O   0  0  0  0  0  0  0  0  0  0  0  0
   19.5948   23.3342   32.6783 C   0  0  0  0  0  0  0  0  0  0  0  0
   22.3973   34.3840   35.8437 C   0  0  0  0  0  0  0  0  0  0  0  0
   21.8477   34.1021   39.4023 C   0  0  0  0  0  0  0  0  0  0  0  0
  1  2  1  1  0  0  0
  1  6  1  0  0  0  0
  1 23  1  0  0  0  0
  3  4  1  6  0  0  0
  3  8  1  0  0  0  0
  3 30  1  0  0  0  0
  5  9  1  0  0  0  0
  5 27  1  0  0  0  0
  5 31  1  6  0  0  0
  6  7  1  1  0  0  0
  6 11  1  0  0  0  0
  8 13  1  0  0  0  0
  9 10  1  1  0  0  0
  9 15  1  0  0  0  0
 11 12  1  6  0  0  0
 11 17  1  0  0  0  0
 13 14  1  6  0  0  0
 13 19  1  0  0  0  0
 15 16  1  1  0  0  0
 15 20  1  0  0  0  0
 16 34  1  0  0  0  0
 17 18  1  1  0  0  0
 17 22  1  0  0  0  0
 19  2  1  1  0  0  0
 19 24  1  0  0  0  0
 20 21  1  6  0  0  0
 20 26  1  0  0  0  0
 20 33  1  0  0  0  0
 22 23  1  6  0  0  0
 22 28  1  0  0  0  0
 24 25  1  6  0  0  0
 24 30  1  0  0  0  0
 26 27  1  0  0  0  0
 28 29  1  6  0  0  0
 28 32  1  0  0  0  0
 30 31  1  1  0  0  0
M  END
>  <CHROM.1>
-179.86650288,-164.97824545,-116.59444878,43.22920107,88.27349831,-155.98016383
20.71982613,28.65756045,35.96979978,2.34937918,0.59655476,3.11220855

>  <Name>
ligand

>  <RI>
0

>  <Rbt.Current_Directory>
/home/itssahil/PROJECTS/Mol_Feturizer/New_Systems/rnas/4p3s

>  <Rbt.Executable>
rbdock ($Id: //depot/dev/client3/rdock/2013.1/src/exe/rbdock.cxx#4 $)

>  <Rbt.Library>
libRbt.so (2013.1, Build901 2013/11/27)

>  <Rbt.Parameter_File>
/export/apps/rDock/src/rDock_2013.1_src/data/scripts/dock_solv.prm

>  <Rbt.Receptor>
prm/blind_docking_80.prm

>  <SCORE>
-12.1321

>  <SCORE.INTER>
-11.0806

>  <SCORE.INTER.CONST>
1

>  <SCORE.INTER.POLAR>
0

>  <SCORE.INTER.ROT>
6

>  <SCORE.INTER.SOLV>
22.727

>  <SCORE.INTER.VDW>
-22.5628

>  <SCORE.INTER.norm>
-0.325901

>  <SCORE.INTRA>
-3.52529

>  <SCORE.INTRA.DIHEDRAL>
-6.82379

>  <SCORE.INTRA.DIHEDRAL.0>
15.8194

>  <SCORE.INTRA.POLAR>
0

>  <SCORE.INTRA.POLAR.0>
0

>  <SCORE.INTRA.REPUL>
0

>  <SCORE.INTRA.REPUL.0>
0

>  <SCORE.INTRA.SOLV>
-0.105341

>  <SCORE.INTRA.SOLV.lig_0>
-71.9159

>  <SCORE.INTRA.VDW>
-0.0607184

>  <SCORE.INTRA.VDW.0>
-3.53918

>  <SCORE.INTRA.norm>
-0.103685

>  <SCORE.RESTR>
2.47379

>  <SCORE.RESTR.CAVITY>
2.47379

>  <SCORE.RESTR.norm>
0.0727587

>  <SCORE.SYSTEM>
0

>  <SCORE.SYSTEM.CONST>
0

>  <SCORE.SYSTEM.DIHEDRAL>
0

>  <SCORE.SYSTEM.SOLV>
0

>  <SCORE.SYSTEM.norm>
0

>  <SCORE.heavy>
34

>  <SCORE.norm>
-0.356827

>  <RMSD>
1.071

$$$$
ligand
 OpenBabel01301917533D
libRbt.so/2013.1/901 2013/11/27
 34 36  0  0  0  0  0  0  0  0999 V2000
   18.4438   27.7351   34.6616 C   0  0  2  0  0  0  0  0  0  0  0  0
   18.9136   27.2198   35.9114 O   0  0  0  0  0  0  0  0  0  0  0  0
   22.4482   27.8112   38.2691 C   0  0  2  0  0  0  0  0  0  0  0  0
   23.8502   27.8208   38.7085 N   0  0  0  0  0  0  0  0  0  0  0  0
   23.9430   30.6379   37.1671 C   0  0  2  0  0  0  0  0  0  0  0  0
   16.8768   27.5798   34.6278 C   0  0  2  0  0  0  0  0  0  0  0  0
   16.2533   28.3045   35.7467 N   0  0  0  0  0  0  0  0  0  0  0  0
   22.0835   26.3372   37.8648 C   0  0  0  0  0  0  0  0  0  0  0  0
   24.0527   31.9711   38.0074 C   0  0  2  0  0  0  0  0  0  0  0  0
   23.9081   31.6947   39.3899 O   0  0  0  0  0  0  0  0  0  0  0  0
   16.4840   26.0725   34.6810 C   0  0  1  0  0  0  0  0  0  0  0  0
   15.0523   25.9259   34.6505 O   0  0  0  0  0  0  0  0  0  0  0  0
   20.5805   26.3244   37.4140 C   0  0  2  0  0  0  0  0  0  0  0  0
   20.1650   24.9514   37.0083 N   0  0  0  0  0  0  0  0  0  0  0  0
   22.9170   32.9505   37.5246 C   0  0  1  0  0  0  0  0  0  0  0  0
   22.9417   34.2075   38.2993 N   0  0  0  0  0  0  0  0  0  0  0  0
   17.1565   25.3509   33.4897 C   0  0  2  0  0  0  0  0  0  0  0  0
   16.7983   23.9656   33.5130 O   0  0  0  0  0  0  0  0  0  0  0  0
   20.3527   27.2933   36.2146 C   0  0  2  0  0  0  0  0  0  0  0  0
   23.1122   33.2452   36.0036 C   0  0  1  0  0  0  0  0  0  0  0  0
   24.3722   33.8846   35.8275 O   0  0  0  0  0  0  0  0  0  0  0  0
   18.7300   25.5491   33.5940 C   0  0  2  0  0  0  0  0  0  0  0  0
   19.0787   26.9872   33.5788 O   0  0  0  0  0  0  0  0  0  0  0  0
   20.7861   28.7262   36.6275 C   0  0  2  0  0  0  0  0  0  0  0  0
   20.5975   29.5849   35.5047 O   0  0  0  0  0  0  0  0  0  0  0  0
   23.0858   31.8937   35.2200 C   0  0  0  0  0  0  0  0  0  0  0  0
   24.1088   30.9519   35.7343 O   0  0  0  0  0  0  0  0  0  0  0  0
   19.4994   24.8594   32.4309 C   0  0  2  0  0  0  0  0  0  0  0  0
   18.8558   25.1696   31.1901 O   0  0  0  0  0  0  0  0  0  0  0  0
   22.2819   28.7838   37.0246 C   0  0  1  0  0  0  0  0  0  0  0  0
   22.5862   30.1502   37.4185 O   0  0  0  0  0  0  0  0  0  0  0  0
   19.5247   23.3538   32.5763 C   0  0  0  0  0  0  0  0  0  0  0  0
   22.0323   34.1774   35.4524 C   0  0  0  0  0  0  0  0  0  0  0  0
   21.9583   34.0697   39.4015 C   0  0  0  0  0  0  0  0  0  0  0  0
  1  2  1  1  0  0  0
  1  6  1  0  0  0  0
  1 23  1  0  0  0  0
  3  4  1  6  0  0  0
  3  8  1  0  0  0  0
  3 30  1  0  0  0  0
  5  9  1  0  0  0  0
  5 27  1  0  0  0  0
  5 31  1  6  0  0  0
  6  7  1  1  0  0  0
  6 11  1  0  0  0  0
  8 13  1  0  0  0  0
  9 10  1  1  0  0  0
  9 15  1  0  0  0  0
 11 12  1  6  0  0  0
 11 17  1  0  0  0  0
 13 14  1  6  0  0  0
 13 19  1  0  0  0  0
 15 16  1  1  0  0  0
 15 20  1  0  0  0  0
 16 34  1  0  0  0  0
 17 18  1  1  0  0  0
 17 22  1  0  0  0  0
 19  2  1  1  0  0  0
 19 24  1  0  0  0  0
 20 21  1  6  0  0  0
 20 26  1  0  0  0  0
 20 33  1  0  0  0  0
 22 23  1  6  0  0  0
 22 28  1  0  0  0  0
 24 25  1  6  0  0  0
 24 30  1  0  0  0  0
 26 27  1  0  0  0  0
 28 29  1  6  0  0  0
 28 32  1  0  0  0  0
 30 31  1  1  0  0  0
M  END
>  <CHROM.1>
-177.81669347,-164.70952780,-95.51285620,46.31135411,95.80666384,-166.42364426
20.69357565,28.70016745,35.87881691,2.38926577,0.67189157,3.02503190

>  <Name>
ligand

>  <RI>
0

>  <Rbt.Current_Directory>
/home/itssahil/PROJECTS/Mol_Feturizer/New_Systems/rnas/4p3s

>  <Rbt.Executable>
rbdock ($Id: //depot/dev/client3/rdock/2013.1/src/exe/rbdock.cxx#4 $)

>  <Rbt.Library>
libRbt.so (2013.1, Build901 2013/11/27)

>  <Rbt.Parameter_File>
/export/apps/rDock/src/rDock_2013.1_src/data/scripts/dock_solv.prm

>  <Rbt.Receptor>
prm/blind_docking_80.prm

>  <SCORE>
-11.2592

>  <SCORE.INTER>
-9.36101

>  <SCORE.INTER.CONST>
1

>  <SCORE.INTER.POLAR>
0

>  <SCORE.INTER.ROT>
6

>  <SCORE.INTER.SOLV>
22.5814

>  <SCORE.INTER.VDW>
-21.3678

>  <SCORE.INTER.norm>
-0.275324

>  <SCORE.INTRA>
-3.97261

>  <SCORE.INTRA.DIHEDRAL>
-7.72173

>  <SCORE.INTRA.DIHEDRAL.0>
15.8194

>  <SCORE.INTRA.POLAR>
0

>  <SCORE.INTRA.POLAR.0>
0

>  <SCORE.INTRA.REPUL>
0

>  <SCORE.INTRA.REPUL.0>
0

>  <SCORE.INTRA.SOLV>
-0.485345

>  <SCORE.INTRA.SOLV.lig_0>
-71.9159

>  <SCORE.INTRA.VDW>
0.130926

>  <SCORE.INTRA.VDW.0>
-3.53918

>  <SCORE.INTRA.norm>
-0.116842

>  <SCORE.RESTR>
2.07441

>  <SCORE.RESTR.CAVITY>
2.07441

>  <SCORE.RESTR.norm>
0.061012

>  <SCORE.SYSTEM>
0

>  <SCORE.SYSTEM.CONST>
0

>  <SCORE.SYSTEM.DIHEDRAL>
0

>  <SCORE.SYSTEM.SOLV>
0

>  <SCORE.SYSTEM.norm>
0

>  <SCORE.heavy>
34

>  <SCORE.norm>
-0.331153

>  <RMSD>
1.081

$$$$
ligand
 OpenBabel01301917533D
libRbt.so/2013.1/901 2013/11/27
 34 36  0  0  0  0  0  0  0  0999 V2000
   18.1505   27.6999   34.9596 C   0  0  2  0  0  0  0  0  0  0  0  0
   18.7334   27.1345   36.1380 O   0  0  0  0  0  0  0  0  0  0  0  0
   22.3311   27.9890   38.3125 C   0  0  2  0  0  0  0  0  0  0  0  0
   23.7490   28.0965   38.6824 N   0  0  0  0  0  0  0  0  0  0  0  0
   22.5911   31.2552   36.3512 C   0  0  2  0  0  0  0  0  0  0  0  0
   16.6053   27.3959   34.9854 C   0  0  2  0  0  0  0  0  0  0  0  0
   15.9786   27.9647   36.1895 N   0  0  0  0  0  0  0  0  0  0  0  0
   22.0454   26.4887   37.9426 C   0  0  0  0  0  0  0  0  0  0  0  0
   23.5316   32.3345   37.0190 C   0  0  2  0  0  0  0  0  0  0  0  0
   24.7289   31.7291   37.4757 O   0  0  0  0  0  0  0  0  0  0  0  0
   16.3582   25.8582   34.9287 C   0  0  1  0  0  0  0  0  0  0  0  0
   14.9468   25.5758   34.9523 O   0  0  0  0  0  0  0  0  0  0  0  0
   20.5265   26.3713   37.5665 C   0  0  2  0  0  0  0  0  0  0  0  0
   20.1835   24.9685   37.1966 N   0  0  0  0  0  0  0  0  0  0  0  0
   22.7538   32.9845   38.2252 C   0  0  1  0  0  0  0  0  0  0  0  0
   23.5950   33.9811   38.9180 N   0  0  0  0  0  0  0  0  0  0  0  0
   17.0294   25.3032   33.6506 C   0  0  2  0  0  0  0  0  0  0  0  0
   16.8037   23.8922   33.5728 O   0  0  0  0  0  0  0  0  0  0  0  0
   20.1774   27.3063   36.3693 C   0  0  2  0  0  0  0  0  0  0  0  0
   21.4492   33.6534   37.6877 C   0  0  1  0  0  0  0  0  0  0  0  0
   21.8149   34.6814   36.7729 O   0  0  0  0  0  0  0  0  0  0  0  0
   18.5809   25.6447   33.6982 C   0  0  2  0  0  0  0  0  0  0  0  0
   18.7926   27.1065   33.7890 O   0  0  0  0  0  0  0  0  0  0  0  0
   20.5348   28.7701   36.7449 C   0  0  2  0  0  0  0  0  0  0  0  0
   20.2357   29.5988   35.6234 O   0  0  0  0  0  0  0  0  0  0  0  0
   20.5904   32.5710   36.9582 C   0  0  0  0  0  0  0  0  0  0  0  0
   21.3589   31.9132   35.8743 O   0  0  0  0  0  0  0  0  0  0  0  0
   19.3470   25.1285   32.4465 C   0  0  2  0  0  0  0  0  0  0  0  0
   18.4821   25.1866   31.3068 O   0  0  0  0  0  0  0  0  0  0  0  0
   22.0409   28.9311   37.0673 C   0  0  1  0  0  0  0  0  0  0  0  0
   22.2730   30.3198   37.4310 O   0  0  0  0  0  0  0  0  0  0  0  0
   19.8056   23.6959   32.6078 C   0  0  0  0  0  0  0  0  0  0  0  0
   20.6245   34.2925   38.8060 C   0  0  0  0  0  0  0  0  0  0  0  0
   23.6673   33.5858   40.3461 C   0  0  0  0  0  0  0  0  0  0  0  0
  1  2  1  1  0  0  0
  1  6  1  0  0  0  0
  1 23  1  0  0  0  0
  3  4  1  6  0  0  0
  3  8  1  0  0  0  0
  3 30  1  0  0  0  0
  5  9  1  0  0  0  0
  5 27  1  0  0  0  0
  5 31  1  1  0  0  0
  6  7  1  1  0  0  0
  6 11  1  0  0  0  0
  8 13  1  0  0  0  0
  9 10  1  1  0  0  0
  9 15  1  0  0  0  0
 11 12  1  6  0  0  0
 11 17  1  0  0  0  0
 13 14  1  6  0  0  0
 13 19  1  0  0  0  0
 15 16  1  6  0  0  0
 15 20  1  0  0  0  0
 16 34  1  0  0  0  0
 17 18  1  1  0  0  0
 17 22  1  0  0  0  0
 19  2  1  1  0  0  0
 19 24  1  0  0  0  0
 20 21  1  6  0  0  0
 20 26  1  0  0  0  0
 20 33  1  0  0  0  0
 22 23  1  6  0  0  0
 22 28  1  0  0  0  0
 24 25  1  6  0  0  0
 24 30  1  0  0  0  0
 26 27  1  0  0  0  0
 28 29  1  6  0  0  0
 28 32  1  0  0  0  0
 30 31  1  1  0  0  0
M  END
>  <CHROM.1>
-178.71167828,-169.93386828,-123.82547277,32.87342220,155.73890180,-149.03687037
20.29595470,28.81440208,36.16654993,2.17051805,0.44771695,-2.92572530

>  <Name>
ligand

>  <RI>
0

>  <Rbt.Current_Directory>
/home/itssahil/PROJECTS/Mol_Feturizer/New_Systems/rnas/4p3s

>  <Rbt.Executable>
rbdock ($Id: //depot/dev/client3/rdock/2013.1/src/exe/rbdock.cxx#4 $)

>  <Rbt.Library>
libRbt.so (2013.1, Build901 2013/11/27)

>  <Rbt.Parameter_File>
/export/apps/rDock/src/rDock_2013.1_src/data/scripts/dock_solv.prm

>  <Rbt.Receptor>
prm/pocket_docking_3.prm

>  <SCORE>
-16.2671

>  <SCORE.INTER>
-13.0737

>  <SCORE.INTER.CONST>
1

>  <SCORE.INTER.POLAR>
0

>  <SCORE.INTER.ROT>
6

>  <SCORE.INTER.SOLV>
20.8391

>  <SCORE.INTER.VDW>
-23.2622

>  <SCORE.INTER.norm>
-0.38452

>  <SCORE.INTRA>
-3.19342

>  <SCORE.INTRA.DIHEDRAL>
-5.52625

>  <SCORE.INTRA.DIHEDRAL.0>
15.8194

>  <SCORE.INTRA.POLAR>
0

>  <SCORE.INTRA.POLAR.0>
0

>  <SCORE.INTRA.REPUL>
0

>  <SCORE.INTRA.REPUL.0>
0

>  <SCORE.INTRA.SOLV>
-1.24618

>  <SCORE.INTRA.SOLV.lig_0>
-71.9159

>  <SCORE.INTRA.VDW>
0.19279

>  <SCORE.INTRA.VDW.0>
-3.53918

>  <SCORE.INTRA.norm>
-0.0939242

>  <SCORE.RESTR>
0

>  <SCORE.RESTR.CAVITY>
0

>  <SCORE.RESTR.norm>
0

>  <SCORE.SYSTEM>
0

>  <SCORE.SYSTEM.CONST>
0

>  <SCORE.SYSTEM.DIHEDRAL>
0

>  <SCORE.SYSTEM.SOLV>
0

>  <SCORE.SYSTEM.norm>
0

>  <SCORE.heavy>
34

>  <SCORE.norm>
-0.478444

>  <RMSD>
1.092

$$$$
ligand
 OpenBabel01301917533D
libRbt.so/2013.1/901 2013/11/27
 34 36  0  0  0  0  0  0  0  0999 V2000
   18.1628   27.7290   34.9701 C   0  0  2  0  0  0  0  0  0  0  0  0
   18.7454   27.1772   36.1552 O   0  0  0  0  0  0  0  0  0  0  0  0
   22.3141   28.1068   38.3465 C   0  0  2  0  0  0  0  0  0  0  0  0
   23.7274   28.2373   38.7262 N   0  0  0  0  0  0  0  0  0  0  0  0
   22.4922   31.3592   36.3364 C   0  0  2  0  0  0  0  0  0  0  0  0
   16.6176   27.4256   34.9992 C   0  0  2  0  0  0  0  0  0  0  0  0
   15.9906   28.0083   36.1965 N   0  0  0  0  0  0  0  0  0  0  0  0
   22.0504   26.5981   37.9949 C   0  0  0  0  0  0  0  0  0  0  0  0
   23.4215   32.4703   36.9667 C   0  0  2  0  0  0  0  0  0  0  0  0
   24.6489   31.9029   37.3909 O   0  0  0  0  0  0  0  0  0  0  0  0
   16.3702   25.8873   34.9602 C   0  0  1  0  0  0  0  0  0  0  0  0
   14.9588   25.6054   34.9868 O   0  0  0  0  0  0  0  0  0  0  0  0
   20.5362   26.4563   37.6082 C   0  0  2  0  0  0  0  0  0  0  0  0
   20.2139   25.0443   37.2549 N   0  0  0  0  0  0  0  0  0  0  0  0
   22.6627   33.1083   38.1912 C   0  0  1  0  0  0  0  0  0  0  0  0
   23.4959   34.1342   38.8502 N   0  0  0  0  0  0  0  0  0  0  0  0
   17.0416   25.3175   33.6887 C   0  0  2  0  0  0  0  0  0  0  0  0
   16.8157   23.9057   33.6272 O   0  0  0  0  0  0  0  0  0  0  0  0
   20.1852   27.3704   36.3956 C   0  0  2  0  0  0  0  0  0  0  0  0
   21.3237   33.7356   37.6891 C   0  0  1  0  0  0  0  0  0  0  0  0
   21.6318   34.7656   36.7556 O   0  0  0  0  0  0  0  0  0  0  0  0
   18.5932   25.6593   33.7327 C   0  0  2  0  0  0  0  0  0  0  0  0
   18.8051   27.1221   33.8066 O   0  0  0  0  0  0  0  0  0  0  0  0
   20.5210   28.8436   36.7539 C   0  0  2  0  0  0  0  0  0  0  0  0
   20.2207   29.6531   35.6189 O   0  0  0  0  0  0  0  0  0  0  0  0
   20.4742   32.6232   36.9946 C   0  0  0  0  0  0  0  0  0  0  0  0
   21.2277   31.9781   35.8927 O   0  0  0  0  0  0  0  0  0  0  0  0
   19.3595   25.1286   32.4871 C   0  0  2  0  0  0  0  0  0  0  0  0
   18.5409   25.2936   31.3240 O   0  0  0  0  0  0  0  0  0  0  0  0
   22.0223   29.0281   37.0862 C   0  0  1  0  0  0  0  0  0  0  0  0
   22.2339   30.4244   37.4326 O   0  0  0  0  0  0  0  0  0  0  0  0
   19.7007   23.6598   32.6093 C   0  0  0  0  0  0  0  0  0  0  0  0
   20.5158   34.3606   38.8273 C   0  0  0  0  0  0  0  0  0  0  0  0
   23.5608   33.7946   40.2928 C   0  0  0  0  0  0  0  0  0  0  0  0
  1  2  1  1  0  0  0
  1  6  1  0  0  0  0
  1 23  1  0  0  0  0
  3  4  1  6  0  0  0
  3  8  1  0  0  0  0
  3 30  1  0  0  0  0
  5  9  1  0  0  0  0
  5 27  1  0  0  0  0
  5 31  1  1  0  0  0
  6  7  1  1  0  0  0
  6 11  1  0  0  0  0
  8 13  1  0  0  0  0
  9 10  1  1  0  0  0
  9 15  1  0  0  0  0
 11 12  1  6  0  0  0
 11 17  1  0  0  0  0
 13 14  1  6  0  0  0
 13 19  1  0  0  0  0
 15 16  1  6  0  0  0
 15 20  1  0  0  0  0
 16 34  1  0  0  0  0
 17 18  1  1  0  0  0
 17 22  1  0  0  0  0
 19  2  1  1  0  0  0
 19 24  1  0  0  0  0
 20 21  1  6  0  0  0
 20 26  1  0  0  0  0
 20 33  1  0  0  0  0
 22 23  1  6  0  0  0
 22 28  1  0  0  0  0
 24 25  1  6  0  0  0
 24 30  1  0  0  0  0
 26 27  1  0  0  0  0
 28 29  1  6  0  0  0
 28 32  1  0  0  0  0
 30 31  1  1  0  0  0
M  END
>  <CHROM.1>
-177.72165546,-170.46833172,-126.90467388,38.40522772,158.30568289,-149.40687810
20.25913815,28.88815776,36.17653546,2.15508351,0.45017648,-2.92833162

>  <Name>
ligand

>  <RI>
0

>  <Rbt.Current_Directory>
/home/itssahil/PROJECTS/Mol_Feturizer/New_Systems/rnas/4p3s

>  <Rbt.Executable>
rbdock ($Id: //depot/dev/client3/rdock/2013.1/src/exe/rbdock.cxx#4 $)

>  <Rbt.Library>
libRbt.so (2013.1, Build901 2013/11/27)

>  <Rbt.Parameter_File>
/export/apps/rDock/src/rDock_2013.1_src/data/scripts/dock_solv.prm

>  <Rbt.Receptor>
prm/pocket_docking_3.prm

>  <SCORE>
-16.2359

>  <SCORE.INTER>
-12.6673

>  <SCORE.INTER.CONST>
1

>  <SCORE.INTER.POLAR>
0

>  <SCORE.INTER.ROT>
6

>  <SCORE.INTER.SOLV>
20.4535

>  <SCORE.INTER.VDW>
-22.8627

>  <SCORE.INTER.norm>
-0.372567

>  <SCORE.INTRA>
-3.5686

>  <SCORE.INTRA.DIHEDRAL>
-6.83531

>  <SCORE.INTRA.DIHEDRAL.0>
15.8194

>  <SCORE.INTRA.POLAR>
0

>  <SCORE.INTRA.POLAR.0>
0

>  <SCORE.INTRA.REPUL>
0

>  <SCORE.INTRA.REPUL.0>
0

>  <SCORE.INTRA.SOLV>
-1.36856

>  <SCORE.INTRA.SOLV.lig_0>
-71.9159

>  <SCORE.INTRA.VDW>
0.533338

>  <SCORE.INTRA.VDW.0>
-3.53918

>  <SCORE.INTRA.norm>
-0.104959

>  <SCORE.RESTR>
0

>  <SCORE.RESTR.CAVITY>
0

>  <SCORE.RESTR.norm>
0

>  <SCORE.SYSTEM>
0

>  <SCORE.SYSTEM.CONST>
0

>  <SCORE.SYSTEM.DIHEDRAL>
0

>  <SCORE.SYSTEM.SOLV>
0

>  <SCORE.SYSTEM.norm>
0

>  <SCORE.heavy>
34

>  <SCORE.norm>
-0.477525

>  <RMSD>
1.106

$$$$
ligand
 OpenBabel01301917533D
libRbt.so/2013.1/901 2013/11/27
 34 36  0  0  0  0  0  0  0  0999 V2000
   18.1840   27.6468   34.9343 C   0  0  2  0  0  0  0  0  0  0  0  0
   18.7531   27.1114   36.1333 O   0  0  0  0  0  0  0  0  0  0  0  0
   22.3220   27.9978   38.3422 C   0  0  2  0  0  0  0  0  0  0  0  0
   23.7351   28.1159   38.7266 N   0  0  0  0  0  0  0  0  0  0  0  0
   22.5317   31.2671   36.3646 C   0  0  2  0  0  0  0  0  0  0  0  0
   16.6401   27.3353   34.9456 C   0  0  2  0  0  0  0  0  0  0  0  0
   15.9937   27.9279   36.1276 N   0  0  0  0  0  0  0  0  0  0  0  0
   22.0498   26.4942   37.9754 C   0  0  0  0  0  0  0  0  0  0  0  0
   23.4737   32.3594   37.0086 C   0  0  2  0  0  0  0  0  0  0  0  0
   24.6925   31.7717   37.4301 O   0  0  0  0  0  0  0  0  0  0  0  0
   16.4015   25.7954   34.9204 C   0  0  1  0  0  0  0  0  0  0  0  0
   14.9913   25.5061   34.9309 O   0  0  0  0  0  0  0  0  0  0  0  0
   20.5358   26.3655   37.5837 C   0  0  2  0  0  0  0  0  0  0  0  0
   20.2057   24.9590   37.2160 N   0  0  0  0  0  0  0  0  0  0  0  0
   22.7201   32.9947   38.2377 C   0  0  1  0  0  0  0  0  0  0  0  0
   23.5649   34.0028   38.9092 N   0  0  0  0  0  0  0  0  0  0  0  0
   17.0933   25.2151   33.6647 C   0  0  2  0  0  0  0  0  0  0  0  0
   16.8757   23.8015   33.6160 O   0  0  0  0  0  0  0  0  0  0  0  0
   20.1935   27.2934   36.3791 C   0  0  2  0  0  0  0  0  0  0  0  0
   21.3908   33.6445   37.7386 C   0  0  1  0  0  0  0  0  0  0  0  0
   21.7148   34.6800   36.8165 O   0  0  0  0  0  0  0  0  0  0  0  0
   18.6422   25.5658   33.7261 C   0  0  2  0  0  0  0  0  0  0  0  0
   18.8453   27.0305   33.7865 O   0  0  0  0  0  0  0  0  0  0  0  0
   20.5375   28.7610   36.7524 C   0  0  2  0  0  0  0  0  0  0  0  0
   20.2451   29.5832   35.6245 O   0  0  0  0  0  0  0  0  0  0  0  0
   20.5286   32.5505   37.0306 C   0  0  0  0  0  0  0  0  0  0  0  0
   21.2766   31.9069   35.9241 O   0  0  0  0  0  0  0  0  0  0  0  0
   19.4283   25.0254   32.4972 C   0  0  2  0  0  0  0  0  0  0  0  0
   18.6758   25.2811   31.3062 O   0  0  0  0  0  0  0  0  0  0  0  0
   22.0390   28.9329   37.0901 C   0  0  1  0  0  0  0  0  0  0  0  0
   22.2584   30.3246   37.4505 O   0  0  0  0  0  0  0  0  0  0  0  0
   19.6680   23.5342   32.5829 C   0  0  0  0  0  0  0  0  0  0  0  0
   20.5880   34.2684   38.8811 C   0  0  0  0  0  0  0  0  0  0  0  0
   23.6220   33.6473   40.3483 C   0  0  0  0  0  0  0  0  0  0  0  0
  1  2  1  1  0  0  0
  1  6  1  0  0  0  0
  1 23  1  0  0  0  0
  3  4  1  6  0  0  0
  3  8  1  0  0  0  0
  3 30  1  0  0  0  0
  5  9  1  0  0  0  0
  5 27  1  0  0  0  0
  5 31  1  1  0  0  0
  6  7  1  1  0  0  0
  6 11  1  0  0  0  0
  8 13  1  0  0  0  0
  9 10  1  1  0  0  0
  9 15  1  0  0  0  0
 11 12  1  6  0  0  0
 11 17  1  0  0  0  0
 13 14  1  6  0  0  0
 13 19  1  0  0  0  0
 15 16  1  6  0  0  0
 15 20  1  0  0  0  0
 16 34  1  0  0  0  0
 17 18  1  1  0  0  0
 17 22  1  0  0  0  0
 19  2  1  1  0  0  0
 19 24  1  0  0  0  0
 20 21  1  6  0  0  0
 20 26  1  0  0  0  0
 20 33  1  0  0  0  0
 22 23  1  6  0  0  0
 22 28  1  0  0  0  0
 24 25  1  6  0  0  0
 24 30  1  0  0  0  0
 26 27  1  0  0  0  0
 28 29  1  6  0  0  0
 28 32  1  0  0  0  0
 30 31  1  1  0  0  0
M  END
>  <CHROM.1>
-178.84894762,-168.78597364,-126.87938998,43.50758001,158.00988729,-148.97428813
20.29602973,28.79385375,36.17829582,2.15545858,0.45050682,-2.92129937

>  <Name>
ligand

>  <RI>
0

>  <Rbt.Current_Directory>
/home/itssahil/PROJECTS/Mol_Feturizer/New_Systems/rnas/4p3s

>  <Rbt.Executable>
rbdock ($Id: //depot/dev/client3/rdock/2013.1/src/exe/rbdock.cxx#4 $)

>  <Rbt.Library>
libRbt.so (2013.1, Build901 2013/11/27)

>  <Rbt.Parameter_File>
/export/apps/rDock/src/rDock_2013.1_src/data/scripts/dock_solv.prm

>  <Rbt.Receptor>
prm/pocket_docking_3.prm

>  <SCORE>
-16.3516

>  <SCORE.INTER>
-12.6676

>  <SCORE.INTER.CONST>
1

>  <SCORE.INTER.POLAR>
0

>  <SCORE.INTER.ROT>
6

>  <SCORE.INTER.SOLV>
20.6241

>  <SCORE.INTER.VDW>
-22.9197

>  <SCORE.INTER.norm>
-0.372575

>  <SCORE.INTRA>
-3.68409

>  <SCORE.INTRA.DIHEDRAL>
-7.15568

>  <SCORE.INTRA.DIHEDRAL.0>
15.8194

>  <SCORE.INTRA.POLAR>
0

>  <SCORE.INTRA.POLAR.0>
0

>  <SCORE.INTRA.REPUL>
0

>  <SCORE.INTRA.REPUL.0>
0

>  <SCORE.INTRA.SOLV>
-1.28037

>  <SCORE.INTRA.SOLV.lig_0>
-71.9159

>  <SCORE.INTRA.VDW>
0.533933

>  <SCORE.INTRA.VDW.0>
-3.53918

>  <SCORE.INTRA.norm>
-0.108356

>  <SCORE.RESTR>
0

>  <SCORE.RESTR.CAVITY>
0

>  <SCORE.RESTR.norm>
0

>  <SCORE.SYSTEM>
0

>  <SCORE.SYSTEM.CONST>
0

>  <SCORE.SYSTEM.DIHEDRAL>
0

>  <SCORE.SYSTEM.SOLV>
0

>  <SCORE.SYSTEM.norm>
0

>  <SCORE.heavy>
34

>  <SCORE.norm>
-0.480931

>  <RMSD>
1.136

$$$$
ligand
 OpenBabel01301917533D
libRbt.so/2013.1/901 2013/11/27
 34 36  0  0  0  0  0  0  0  0999 V2000
   18.2472   27.7733   35.2763 C   0  0  2  0  0  0  0  0  0  0  0  0
   18.8302   27.0994   36.3961 O   0  0  0  0  0  0  0  0  0  0  0  0
   22.5036   27.5941   38.5557 C   0  0  2  0  0  0  0  0  0  0  0  0
   23.9323   27.6147   38.8978 N   0  0  0  0  0  0  0  0  0  0  0  0
   23.9090   30.4264   37.9712 C   0  0  2  0  0  0  0  0  0  0  0  0
   16.6837   27.6045   35.3651 C   0  0  2  0  0  0  0  0  0  0  0  0
   16.1662   28.1632   36.6245 N   0  0  0  0  0  0  0  0  0  0  0  0
   22.1575   26.1534   38.0325 C   0  0  0  0  0  0  0  0  0  0  0  0
   23.9175   31.7245   38.8713 C   0  0  2  0  0  0  0  0  0  0  0  0
   23.4919   31.4139   40.1870 O   0  0  0  0  0  0  0  0  0  0  0  0
   16.2973   26.0992   35.2484 C   0  0  1  0  0  0  0  0  0  0  0  0
   14.8689   25.9403   35.3293 O   0  0  0  0  0  0  0  0  0  0  0  0
   20.6274   26.1269   37.6857 C   0  0  2  0  0  0  0  0  0  0  0  0
   20.2274   24.7848   37.1746 N   0  0  0  0  0  0  0  0  0  0  0  0
   22.9477   32.7808   38.2186 C   0  0  1  0  0  0  0  0  0  0  0  0
   22.8821   34.0097   39.0349 N   0  0  0  0  0  0  0  0  0  0  0  0
   16.8569   25.5541   33.9136 C   0  0  2  0  0  0  0  0  0  0  0  0
   16.5022   24.1740   33.7808 O   0  0  0  0  0  0  0  0  0  0  0  0
   20.2842   27.1981   36.6068 C   0  0  2  0  0  0  0  0  0  0  0  0
   23.4510   33.1112   36.7778 C   0  0  1  0  0  0  0  0  0  0  0  0
   24.7509   33.6838   36.8757 O   0  0  0  0  0  0  0  0  0  0  0  0
   18.4334   25.7559   33.8995 C   0  0  2  0  0  0  0  0  0  0  0  0
   18.7793   27.1870   34.0484 O   0  0  0  0  0  0  0  0  0  0  0  0
   20.7008   28.5997   37.1298 C   0  0  2  0  0  0  0  0  0  0  0  0
   20.4057   29.5555   36.1133 O   0  0  0  0  0  0  0  0  0  0  0  0
   23.5121   31.7882   35.9486 C   0  0  0  0  0  0  0  0  0  0  0  0
   24.3672   30.7749   36.6120 O   0  0  0  0  0  0  0  0  0  0  0  0
   19.0921   25.2397   32.5880 C   0  0  2  0  0  0  0  0  0  0  0  0
   18.2638   25.5911   31.4741 O   0  0  0  0  0  0  0  0  0  0  0  0
   22.2185   28.6758   37.4283 C   0  0  1  0  0  0  0  0  0  0  0  0
   22.5070   30.0081   37.9346 O   0  0  0  0  0  0  0  0  0  0  0  0
   19.2587   23.7361   32.5857 C   0  0  0  0  0  0  0  0  0  0  0  0
   22.5469   34.1192   36.0669 C   0  0  0  0  0  0  0  0  0  0  0  0
   21.6582   33.9244   39.8690 C   0  0  0  0  0  0  0  0  0  0  0  0
  1  2  1  1  0  0  0
  1  6  1  0  0  0  0
  1 23  1  0  0  0  0
  3  4  1  6  0  0  0
  3  8  1  0  0  0  0
  3 30  1  0  0  0  0
  5  9  1  0  0  0  0
  5 27  1  0  0  0  0
  5 31  1  6  0  0  0
  6  7  1  1  0  0  0
  6 11  1  0  0  0  0
  8 13  1  0  0  0  0
  9 10  1  1  0  0  0
  9 15  1  0  0  0  0
 11 12  1  6  0  0  0
 11 17  1  0  0  0  0
 13 14  1  6  0  0  0
 13 19  1  0  0  0  0
 15 16  1  1  0  0  0
 15 20  1  0  0  0  0
 16 34  1  0  0  0  0
 17 18  1  1  0  0  0
 17 22  1  0  0  0  0
 19  2  1  1  0  0  0
 19 24  1  0  0  0  0
 20 21  1  1  0  0  0
 20 26  1  0  0  0  0
 20 33  1  0  0  0  0
 22 23  1  6  0  0  0
 22 28  1  0  0  0  0
 24 25  1  6  0  0  0
 24 30  1  0  0  0  0
 26 27  1  0  0  0  0
 28 29  1  6  0  0  0
 28 32  1  0  0  0  0
 30 31  1  1  0  0  0
M  END
>  <CHROM.1>
-175.16354583,-167.91243085,-98.35752960,40.48516292,79.48296490,-166.64657644
20.61568703,28.65661139,36.40383010,2.37491597,0.57436122,-3.13106611

>  <Name>
ligand

>  <RI>
0

>  <Rbt.Current_Directory>
/home/itssahil/PROJECTS/Mol_Feturizer/New_Systems/rnas/4p3s

>  <Rbt.Executable>
rbdock ($Id: //depot/dev/client3/rdock/2013.1/src/exe/rbdock.cxx#4 $)

>  <Rbt.Library>
libRbt.so (2013.1, Build901 2013/11/27)

>  <Rbt.Parameter_File>
/export/apps/rDock/src/rDock_2013.1_src/data/scripts/dock_solv.prm

>  <Rbt.Receptor>
prm/pocket_docking_5.prm

>  <SCORE>
-18.7231

>  <SCORE.INTER>
-13.6154

>  <SCORE.INTER.CONST>
1

>  <SCORE.INTER.POLAR>
0

>  <SCORE.INTER.ROT>
6

>  <SCORE.INTER.SOLV>
21.6564

>  <SCORE.INTER.VDW>
-23.8958

>  <SCORE.INTER.norm>
-0.400454

>  <SCORE.INTRA>
-5.10767

>  <SCORE.INTRA.DIHEDRAL>
-10.2577

>  <SCORE.INTRA.DIHEDRAL.0>
15.8194

>  <SCORE.INTRA.POLAR>
0

>  <SCORE.INTRA.POLAR.0>
0

>  <SCORE.INTRA.REPUL>
0

>  <SCORE.INTRA.REPUL.0>
0

>  <SCORE.INTRA.SOLV>
-0.387417

>  <SCORE.INTRA.SOLV.lig_0>
-71.9159

>  <SCORE.INTRA.VDW>
0.214895

>  <SCORE.INTRA.VDW.0>
-3.53918

>  <SCORE.INTRA.norm>
-0.150226

>  <SCORE.RESTR>
0

>  <SCORE.RESTR.CAVITY>
0

>  <SCORE.RESTR.norm>
0

>  <SCORE.SYSTEM>
0

>  <SCORE.SYSTEM.CONST>
0

>  <SCORE.SYSTEM.DIHEDRAL>
0

>  <SCORE.SYSTEM.SOLV>
0

>  <SCORE.SYSTEM.norm>
0

>  <SCORE.heavy>
34

>  <SCORE.norm>
-0.55068

>  <RMSD>
1.140

$$$$
ligand
 OpenBabel01301917533D
libRbt.so/2013.1/901 2013/11/27
 34 36  0  0  0  0  0  0  0  0999 V2000
   18.4740   27.6827   34.6339 C   0  0  2  0  0  0  0  0  0  0  0  0
   18.9404   27.1679   35.8851 O   0  0  0  0  0  0  0  0  0  0  0  0
   22.3925   27.9140   38.3199 C   0  0  2  0  0  0  0  0  0  0  0  0
   23.7823   27.9827   38.7914 N   0  0  0  0  0  0  0  0  0  0  0  0
   23.7346   30.8504   37.0747 C   0  0  2  0  0  0  0  0  0  0  0  0
   16.9058   27.5405   34.6017 C   0  0  2  0  0  0  0  0  0  0  0  0
   16.2892   28.2744   35.7185 N   0  0  0  0  0  0  0  0  0  0  0  0
   22.0973   26.4244   37.9159 C   0  0  0  0  0  0  0  0  0  0  0  0
   23.7458   32.2634   37.7809 C   0  0  2  0  0  0  0  0  0  0  0  0
   23.7103   32.1099   39.1894 O   0  0  0  0  0  0  0  0  0  0  0  0
   16.5003   26.0368   34.6604 C   0  0  1  0  0  0  0  0  0  0  0  0
   15.0674   25.9022   34.6314 O   0  0  0  0  0  0  0  0  0  0  0  0
   20.6069   26.3483   37.4308 C   0  0  2  0  0  0  0  0  0  0  0  0
   20.2569   24.9576   37.0237 N   0  0  0  0  0  0  0  0  0  0  0  0
   22.4849   33.0688   37.2874 C   0  0  1  0  0  0  0  0  0  0  0  0
   22.4163   34.3913   37.9411 N   0  0  0  0  0  0  0  0  0  0  0  0
   17.1659   25.3055   33.4711 C   0  0  2  0  0  0  0  0  0  0  0  0
   16.7960   23.9233   33.4994 O   0  0  0  0  0  0  0  0  0  0  0  0
   20.3678   27.3013   36.2208 C   0  0  2  0  0  0  0  0  0  0  0  0
   22.5608   33.2322   35.7364 C   0  0  1  0  0  0  0  0  0  0  0  0
   23.7318   33.9775   35.4194 O   0  0  0  0  0  0  0  0  0  0  0  0
   18.7411   25.4908   33.5736 C   0  0  2  0  0  0  0  0  0  0  0  0
   19.1018   26.9259   33.5532 O   0  0  0  0  0  0  0  0  0  0  0  0
   20.7332   28.7526   36.6352 C   0  0  2  0  0  0  0  0  0  0  0  0
   20.5360   29.5974   35.5034 O   0  0  0  0  0  0  0  0  0  0  0  0
   22.6374   31.8151   35.0826 C   0  0  0  0  0  0  0  0  0  0  0  0
   23.7842   31.0384   35.6115 O   0  0  0  0  0  0  0  0  0  0  0  0
   19.5038   24.7906   32.4124 C   0  0  2  0  0  0  0  0  0  0  0  0
   18.8412   25.0730   31.1749 O   0  0  0  0  0  0  0  0  0  0  0  0
   22.2158   28.8729   37.0663 C   0  0  1  0  0  0  0  0  0  0  0  0
   22.4552   30.2524   37.4591 O   0  0  0  0  0  0  0  0  0  0  0  0
   19.5482   23.2880   32.5821 C   0  0  0  0  0  0  0  0  0  0  0  0
   21.3566   33.9898   35.1754 C   0  0  0  0  0  0  0  0  0  0  0  0
   23.7073   35.0781   37.6910 C   0  0  0  0  0  0  0  0  0  0  0  0
  1  2  1  1  0  0  0
  1  6  1  0  0  0  0
  1 23  1  0  0  0  0
  3  4  1  6  0  0  0
  3  8  1  0  0  0  0
  3 30  1  0  0  0  0
  5  9  1  0  0  0  0
  5 27  1  0  0  0  0
  5 31  1  6  0  0  0
  6  7  1  1  0  0  0
  6 11  1  0  0  0  0
  8 13  1  0  0  0  0
  9 10  1  1  0  0  0
  9 15  1  0  0  0  0
 11 12  1  6  0  0  0
 11 17  1  0  0  0  0
 13 14  1  6  0  0  0
 13 19  1  0  0  0  0
 15 16  1  1  0  0  0
 15 20  1  0  0  0  0
 16 34  1  0  0  0  0
 17 18  1  1  0  0  0
 17 22  1  0  0  0  0
 19  2  1  1  0  0  0
 19 24  1  0  0  0  0
 20 21  1  6  0  0  0
 20 26  1  0  0  0  0
 20 33  1  0  0  0  0
 22 23  1  6  0  0  0
 22 28  1  0  0  0  0
 24 25  1  6  0  0  0
 24 30  1  0  0  0  0
 26 27  1  0  0  0  0
 28 29  1  6  0  0  0
 28 32  1  0  0  0  0
 30 31  1  1  0  0  0
M  END
>  <CHROM.1>
-174.28015869,-166.01054466,54.81431192,44.79333216,103.83805988,-173.75812080
20.61823422,28.76268574,35.75827840,2.39659734,0.72384259,2.93713999

>  <Name>
ligand

>  <RI>
0

>  <Rbt.Current_Directory>
/home/itssahil/PROJECTS/Mol_Feturizer/New_Systems/rnas/4p3s

>  <Rbt.Executable>
rbdock ($Id: //depot/dev/client3/rdock/2013.1/src/exe/rbdock.cxx#4 $)

>  <Rbt.Library>
libRbt.so (2013.1, Build901 2013/11/27)

>  <Rbt.Parameter_File>
/export/apps/rDock/src/rDock_2013.1_src/data/scripts/dock_solv.prm

>  <Rbt.Receptor>
prm/blind_docking_80.prm

>  <SCORE>
-1.78268

>  <SCORE.INTER>
-7.52968

>  <SCORE.INTER.CONST>
1

>  <SCORE.INTER.POLAR>
0

>  <SCORE.INTER.ROT>
6

>  <SCORE.INTER.SOLV>
21.76

>  <SCORE.INTER.VDW>
-19.8731

>  <SCORE.INTER.norm>
-0.221461

>  <SCORE.INTRA>
3.75704

>  <SCORE.INTRA.DIHEDRAL>
-7.75199

>  <SCORE.INTRA.DIHEDRAL.0>
15.8194

>  <SCORE.INTRA.POLAR>
0

>  <SCORE.INTRA.POLAR.0>
0

>  <SCORE.INTRA.REPUL>
0

>  <SCORE.INTRA.REPUL.0>
0

>  <SCORE.INTRA.SOLV>
-0.598054

>  <SCORE.INTRA.SOLV.lig_0>
-71.9159

>  <SCORE.INTRA.VDW>
7.93206

>  <SCORE.INTRA.VDW.0>
-3.53918

>  <SCORE.INTRA.norm>
0.110501

>  <SCORE.RESTR>
1.98996

>  <SCORE.RESTR.CAVITY>
1.98996

>  <SCORE.RESTR.norm>
0.0585282

>  <SCORE.SYSTEM>
0

>  <SCORE.SYSTEM.CONST>
0

>  <SCORE.SYSTEM.DIHEDRAL>
0

>  <SCORE.SYSTEM.SOLV>
0

>  <SCORE.SYSTEM.norm>
0

>  <SCORE.heavy>
34

>  <SCORE.norm>
-0.0524317

>  <RMSD>
1.202

$$$$
ligand
 OpenBabel01301917533D
libRbt.so/2013.1/901 2013/11/27
 34 36  0  0  0  0  0  0  0  0999 V2000
   18.3053   27.7442   34.7048 C   0  0  2  0  0  0  0  0  0  0  0  0
   18.7933   27.1426   35.9082 O   0  0  0  0  0  0  0  0  0  0  0  0
   22.4458   27.6102   38.1088 C   0  0  2  0  0  0  0  0  0  0  0  0
   23.8604   27.5440   38.5001 N   0  0  0  0  0  0  0  0  0  0  0  0
   23.9288   30.3784   36.4705 C   0  0  2  0  0  0  0  0  0  0  0  0
   16.7328   27.6564   34.7182 C   0  0  2  0  0  0  0  0  0  0  0  0
   16.1787   28.3445   35.8952 N   0  0  0  0  0  0  0  0  0  0  0  0
   21.9646   26.1458   37.8034 C   0  0  0  0  0  0  0  0  0  0  0  0
   24.8164   30.9357   37.6525 C   0  0  2  0  0  0  0  0  0  0  0  0
   25.1614   29.8897   38.5444 O   0  0  0  0  0  0  0  0  0  0  0  0
   16.2768   26.1661   34.7052 C   0  0  1  0  0  0  0  0  0  0  0  0
   14.8398   26.0812   34.7176 O   0  0  0  0  0  0  0  0  0  0  0  0
   20.4487   26.2155   37.4043 C   0  0  2  0  0  0  0  0  0  0  0  0
   19.9239   24.8552   37.0933 N   0  0  0  0  0  0  0  0  0  0  0  0
   23.9899   32.0454   38.4060 C   0  0  1  0  0  0  0  0  0  0  0  0
   24.7528   32.5840   39.5500 N   0  0  0  0  0  0  0  0  0  0  0  0
   16.8776   25.4831   33.4544 C   0  0  2  0  0  0  0  0  0  0  0  0
   16.4604   24.1147   33.4168 O   0  0  0  0  0  0  0  0  0  0  0  0
   20.2442   27.1297   36.1586 C   0  0  2  0  0  0  0  0  0  0  0  0
   23.6378   33.1876   37.4011 C   0  0  1  0  0  0  0  0  0  0  0  0
   24.8523   33.7629   36.9306 O   0  0  0  0  0  0  0  0  0  0  0  0
   18.4608   25.6096   33.5134 C   0  0  2  0  0  0  0  0  0  0  0  0
   18.8710   27.0307   33.5622 O   0  0  0  0  0  0  0  0  0  0  0  0
   20.7914   28.5487   36.4727 C   0  0  2  0  0  0  0  0  0  0  0  0
   20.6212   29.3547   35.3086 O   0  0  0  0  0  0  0  0  0  0  0  0
   22.8377   32.5788   36.2050 C   0  0  0  0  0  0  0  0  0  0  0  0
   23.5942   31.4840   35.5515 O   0  0  0  0  0  0  0  0  0  0  0  0
   19.1607   24.9528   32.2890 C   0  0  2  0  0  0  0  0  0  0  0  0
   18.1937   24.2173   31.5314 O   0  0  0  0  0  0  0  0  0  0  0  0
   22.3013   28.5213   36.8159 C   0  0  1  0  0  0  0  0  0  0  0  0
   22.7143   29.8822   37.1192 O   0  0  0  0  0  0  0  0  0  0  0  0
   20.2534   23.9920   32.7031 C   0  0  0  0  0  0  0  0  0  0  0  0
   22.8148   34.2987   38.0544 C   0  0  0  0  0  0  0  0  0  0  0  0
   24.1575   32.0200   40.7862 C   0  0  0  0  0  0  0  0  0  0  0  0
  1  2  1  1  0  0  0
  1  6  1  0  0  0  0
  1 23  1  0  0  0  0
  3  4  1  6  0  0  0
  3  8  1  0  0  0  0
  3 30  1  0  0  0  0
  5  9  1  0  0  0  0
  5 27  1  0  0  0  0
  5 31  1  1  0  0  0
  6  7  1  1  0  0  0
  6 11  1  0  0  0  0
  8 13  1  0  0  0  0
  9 10  1  1  0  0  0
  9 15  1  0  0  0  0
 11 12  1  6  0  0  0
 11 17  1  0  0  0  0
 13 14  1  6  0  0  0
 13 19  1  0  0  0  0
 15 16  1  1  0  0  0
 15 20  1  0  0  0  0
 16 34  1  0  0  0  0
 17 18  1  1  0  0  0
 17 22  1  0  0  0  0
 19  2  1  1  0  0  0
 19 24  1  0  0  0  0
 20 21  1  6  0  0  0
 20 26  1  0  0  0  0
 20 33  1  0  0  0  0
 22 23  1  6  0  0  0
 22 28  1  0  0  0  0
 24 25  1  6  0  0  0
 24 30  1  0  0  0  0
 26 27  1  0  0  0  0
 28 29  1  1  0  0  0
 28 32  1  0  0  0  0
 30 31  1  1  0  0  0
M  END
>  <CHROM.1>
-178.30959187,-171.01069806,-105.24961905,-9.12005731,112.74489551,-128.01175954
20.85551301,28.45974543,36.07781895,2.41594881,0.51999494,-3.07006704

>  <Name>
ligand

>  <RI>
0

>  <Rbt.Current_Directory>
/home/itssahil/PROJECTS/Mol_Feturizer/New_Systems/rnas/4p3s

>  <Rbt.Executable>
rbdock ($Id: //depot/dev/client3/rdock/2013.1/src/exe/rbdock.cxx#4 $)

>  <Rbt.Library>
libRbt.so (2013.1, Build901 2013/11/27)

>  <Rbt.Parameter_File>
/export/apps/rDock/src/rDock_2013.1_src/data/scripts/dock_solv.prm

>  <Rbt.Receptor>
prm/blind_docking_80.prm

>  <SCORE>
-10.4173

>  <SCORE.INTER>
-13.8341

>  <SCORE.INTER.CONST>
1

>  <SCORE.INTER.POLAR>
0

>  <SCORE.INTER.ROT>
6

>  <SCORE.INTER.SOLV>
26.8678

>  <SCORE.INTER.VDW>
-25.7786

>  <SCORE.INTER.norm>
-0.406884

>  <SCORE.INTRA>
2.96918

>  <SCORE.INTRA.DIHEDRAL>
4.46793

>  <SCORE.INTRA.DIHEDRAL.0>
15.8194

>  <SCORE.INTRA.POLAR>
0

>  <SCORE.INTRA.POLAR.0>
0

>  <SCORE.INTRA.REPUL>
0

>  <SCORE.INTRA.REPUL.0>
0

>  <SCORE.INTRA.SOLV>
0.584586

>  <SCORE.INTRA.SOLV.lig_0>
-71.9159

>  <SCORE.INTRA.VDW>
0.442916

>  <SCORE.INTRA.VDW.0>
-3.53918

>  <SCORE.INTRA.norm>
0.0873287

>  <SCORE.RESTR>
0.447622

>  <SCORE.RESTR.CAVITY>
0.447622

>  <SCORE.RESTR.norm>
0.0131654

>  <SCORE.SYSTEM>
0

>  <SCORE.SYSTEM.CONST>
0

>  <SCORE.SYSTEM.DIHEDRAL>
0

>  <SCORE.SYSTEM.SOLV>
0

>  <SCORE.SYSTEM.norm>
0

>  <SCORE.heavy>
34

>  <SCORE.norm>
-0.30639

>  <RMSD>
1.223

$$$$
ligand
 OpenBabel01301917533D
libRbt.so/2013.1/901 2013/11/27
 34 36  0  0  0  0  0  0  0  0999 V2000
   18.4678   27.6222   34.5486 C   0  0  2  0  0  0  0  0  0  0  0  0
   18.9048   27.1043   35.8092 O   0  0  0  0  0  0  0  0  0  0  0  0
   22.4655   27.6473   38.1391 C   0  0  2  0  0  0  0  0  0  0  0  0
   23.8637   27.5982   38.5877 N   0  0  0  0  0  0  0  0  0  0  0  0
   23.9610   30.4022   36.4282 C   0  0  2  0  0  0  0  0  0  0  0  0
   16.8976   27.5118   34.4937 C   0  0  2  0  0  0  0  0  0  0  0  0
   16.2796   28.2637   35.5977 N   0  0  0  0  0  0  0  0  0  0  0  0
   22.0023   26.1731   37.8541 C   0  0  0  0  0  0  0  0  0  0  0  0
   24.8685   30.9633   37.5931 C   0  0  2  0  0  0  0  0  0  0  0  0
   25.2412   29.9174   38.4739 O   0  0  0  0  0  0  0  0  0  0  0  0
   16.4607   26.0170   34.5535 C   0  0  1  0  0  0  0  0  0  0  0  0
   15.0258   25.9114   34.5038 O   0  0  0  0  0  0  0  0  0  0  0  0
   20.5031   26.2250   37.3937 C   0  0  2  0  0  0  0  0  0  0  0  0
   19.9960   24.8545   37.0987 N   0  0  0  0  0  0  0  0  0  0  0  0
   24.0487   32.0635   38.3676 C   0  0  1  0  0  0  0  0  0  0  0  0
   24.8311   32.6049   39.4971 N   0  0  0  0  0  0  0  0  0  0  0  0
   17.1287   25.2662   33.3779 C   0  0  2  0  0  0  0  0  0  0  0  0
   16.7302   23.8920   33.4072 O   0  0  0  0  0  0  0  0  0  0  0  0
   20.3448   27.1049   36.1170 C   0  0  2  0  0  0  0  0  0  0  0  0
   23.6658   33.2058   37.3743 C   0  0  1  0  0  0  0  0  0  0  0  0
   24.8652   33.7930   36.8802 O   0  0  0  0  0  0  0  0  0  0  0  0
   18.7056   25.4198   33.5030 C   0  0  2  0  0  0  0  0  0  0  0  0
   19.0959   26.8472   33.4812 O   0  0  0  0  0  0  0  0  0  0  0  0
   20.8738   28.5343   36.4145 C   0  0  2  0  0  0  0  0  0  0  0  0
   20.7470   29.3084   35.2235 O   0  0  0  0  0  0  0  0  0  0  0  0
   22.8458   32.5940   36.1932 C   0  0  0  0  0  0  0  0  0  0  0  0
   23.5977   31.5078   35.5202 O   0  0  0  0  0  0  0  0  0  0  0  0
   19.4710   24.6984   32.3567 C   0  0  2  0  0  0  0  0  0  0  0  0
   18.8416   24.9998   31.1064 O   0  0  0  0  0  0  0  0  0  0  0  0
   22.3690   28.5231   36.8178 C   0  0  1  0  0  0  0  0  0  0  0  0
   22.7647   29.8935   37.1007 O   0  0  0  0  0  0  0  0  0  0  0  0
   19.4690   23.1951   32.5261 C   0  0  0  0  0  0  0  0  0  0  0  0
   22.8474   34.3077   38.0486 C   0  0  0  0  0  0  0  0  0  0  0  0
   24.2147   32.0984   40.7479 C   0  0  0  0  0  0  0  0  0  0  0  0
  1  2  1  1  0  0  0
  1  6  1  0  0  0  0
  1 23  1  0  0  0  0
  3  4  1  6  0  0  0
  3  8  1  0  0  0  0
  3 30  1  0  0  0  0
  5  9  1  0  0  0  0
  5 27  1  0  0  0  0
  5 31  1  1  0  0  0
  6  7  1  1  0  0  0
  6 11  1  0  0  0  0
  8 13  1  0  0  0  0
  9 10  1  1  0  0  0
  9 15  1  0  0  0  0
 11 12  1  6  0  0  0
 11 17  1  0  0  0  0
 13 14  1  6  0  0  0
 13 19  1  0  0  0  0
 15 16  1  1  0  0  0
 15 20  1  0  0  0  0
 16 34  1  0  0  0  0
 17 18  1  1  0  0  0
 17 22  1  0  0  0  0
 19  2  1  1  0  0  0
 19 24  1  0  0  0  0
 20 21  1  6  0  0  0
 20 26  1  0  0  0  0
 20 33  1  0  0  0  0
 22 23  1  6  0  0  0
 22 28  1  0  0  0  0
 24 25  1  6  0  0  0
 24 30  1  0  0  0  0
 26 27  1  0  0  0  0
 28 29  1  6  0  0  0
 28 32  1  0  0  0  0
 30 31  1  1  0  0  0
M  END
>  <CHROM.1>
-179.47973134,-168.50954272,-108.67819651,45.42500642,116.10125396,-127.06359337
20.94806920,28.41941420,36.00734438,2.46030898,0.62495343,3.09806389

>  <Name>
ligand

>  <RI>
0

>  <Rbt.Current_Directory>
/home/itssahil/PROJECTS/Mol_Feturizer/New_Systems/rnas/4p3s

>  <Rbt.Executable>
rbdock ($Id: //depot/dev/client3/rdock/2013.1/src/exe/rbdock.cxx#4 $)

>  <Rbt.Library>
libRbt.so (2013.1, Build901 2013/11/27)

>  <Rbt.Parameter_File>
/export/apps/rDock/src/rDock_2013.1_src/data/scripts/dock_solv.prm

>  <Rbt.Receptor>
prm/blind_docking_80.prm

>  <SCORE>
-11.1192

>  <SCORE.INTER>
-12.0037

>  <SCORE.INTER.CONST>
1

>  <SCORE.INTER.POLAR>
0

>  <SCORE.INTER.ROT>
6

>  <SCORE.INTER.SOLV>
27.7386

>  <SCORE.INTER.VDW>
-24.8487

>  <SCORE.INTER.norm>
-0.353051

>  <SCORE.INTRA>
0.498696

>  <SCORE.INTRA.DIHEDRAL>
0.647732

>  <SCORE.INTRA.DIHEDRAL.0>
15.8194

>  <SCORE.INTRA.POLAR>
0

>  <SCORE.INTRA.POLAR.0>
0

>  <SCORE.INTRA.REPUL>
0

>  <SCORE.INTRA.REPUL.0>
0

>  <SCORE.INTRA.SOLV>
0.444541

>  <SCORE.INTRA.SOLV.lig_0>
-71.9159

>  <SCORE.INTRA.VDW>
-0.0474402

>  <SCORE.INTRA.VDW.0>
-3.53918

>  <SCORE.INTRA.norm>
0.0146675

>  <SCORE.RESTR>
0.385858

>  <SCORE.RESTR.CAVITY>
0.385858

>  <SCORE.RESTR.norm>
0.0113488

>  <SCORE.SYSTEM>
0

>  <SCORE.SYSTEM.CONST>
0

>  <SCORE.SYSTEM.DIHEDRAL>
0

>  <SCORE.SYSTEM.SOLV>
0

>  <SCORE.SYSTEM.norm>
0

>  <SCORE.heavy>
34

>  <SCORE.norm>
-0.327034

>  <RMSD>
1.296

$$$$
ligand
 OpenBabel01301917533D
libRbt.so/2013.1/901 2013/11/27
 34 36  0  0  0  0  0  0  0  0999 V2000
   18.3227   27.7820   35.0593 C   0  0  2  0  0  0  0  0  0  0  0  0
   18.7604   27.3419   36.3489 O   0  0  0  0  0  0  0  0  0  0  0  0
   22.1503   28.0576   38.8784 C   0  0  2  0  0  0  0  0  0  0  0  0
   23.5305   28.1492   39.3737 N   0  0  0  0  0  0  0  0  0  0  0  0
   23.4918   30.8777   38.4948 C   0  0  2  0  0  0  0  0  0  0  0  0
   16.7478   27.7982   35.0578 C   0  0  2  0  0  0  0  0  0  0  0  0
   16.2312   28.6928   36.1061 N   0  0  0  0  0  0  0  0  0  0  0  0
   21.9203   26.5883   38.3712 C   0  0  0  0  0  0  0  0  0  0  0  0
   23.3389   32.3701   38.9896 C   0  0  2  0  0  0  0  0  0  0  0  0
   22.5512   32.4201   40.1667 O   0  0  0  0  0  0  0  0  0  0  0  0
   16.1944   26.3559   35.2641 C   0  0  1  0  0  0  0  0  0  0  0  0
   14.7549   26.3662   35.2636 O   0  0  0  0  0  0  0  0  0  0  0  0
   20.4401   26.4863   37.8604 C   0  0  2  0  0  0  0  0  0  0  0  0
   20.1515   25.1135   37.3559 N   0  0  0  0  0  0  0  0  0  0  0  0
   22.6549   33.2011   37.8390 C   0  0  1  0  0  0  0  0  0  0  0  0
   22.4492   34.6035   38.2537 N   0  0  0  0  0  0  0  0  0  0  0  0
   16.7585   25.4521   34.1430 C   0  0  2  0  0  0  0  0  0  0  0  0
   16.2521   24.1237   34.3071 O   0  0  0  0  0  0  0  0  0  0  0  0
   20.1772   27.5086   36.7136 C   0  0  2  0  0  0  0  0  0  0  0  0
   23.5525   33.1374   36.5629 C   0  0  1  0  0  0  0  0  0  0  0  0
   24.8109   33.7297   36.8681 O   0  0  0  0  0  0  0  0  0  0  0  0
   18.3461   25.4844   34.2103 C   0  0  2  0  0  0  0  0  0  0  0  0
   18.8489   26.8669   34.0492 O   0  0  0  0  0  0  0  0  0  0  0  0
   20.4787   28.9419   37.2296 C   0  0  2  0  0  0  0  0  0  0  0  0
   20.2610   29.8528   36.1542 O   0  0  0  0  0  0  0  0  0  0  0  0
   23.7513   31.6410   36.1596 C   0  0  0  0  0  0  0  0  0  0  0  0
   24.3251   30.8529   37.2766 O   0  0  0  0  0  0  0  0  0  0  0  0
   19.0106   24.6041   33.1131 C   0  0  2  0  0  0  0  0  0  0  0  0
   20.4343   24.6793   33.2460 O   0  0  0  0  0  0  0  0  0  0  0  0
   21.9500   29.0913   37.6894 C   0  0  1  0  0  0  0  0  0  0  0  0
   22.1288   30.4495   38.1772 O   0  0  0  0  0  0  0  0  0  0  0  0
   18.6505   25.0626   31.7171 C   0  0  0  0  0  0  0  0  0  0  0  0
   22.9444   33.9070   35.3896 C   0  0  0  0  0  0  0  0  0  0  0  0
   21.0086   34.9117   38.0794 C   0  0  0  0  0  0  0  0  0  0  0  0
  1  2  1  1  0  0  0
  1  6  1  0  0  0  0
  1 23  1  0  0  0  0
  3  4  1  6  0  0  0
  3  8  1  0  0  0  0
  3 30  1  0  0  0  0
  5  9  1  0  0  0  0
  5 27  1  0  0  0  0
  5 31  1  6  0  0  0
  6  7  1  1  0  0  0
  6 11  1  0  0  0  0
  8 13  1  0  0  0  0
  9 10  1  1  0  0  0
  9 15  1  0  0  0  0
 11 12  1  6  0  0  0
 11 17  1  0  0  0  0
 13 14  1  6  0  0  0
 13 19  1  0  0  0  0
 15 16  1  1  0  0  0
 15 20  1  0  0  0  0
 16 34  1  0  0  0  0
 17 18  1  1  0  0  0
 17 22  1  0  0  0  0
 19  2  1  1  0  0  0
 19 24  1  0  0  0  0
 20 21  1  1  0  0  0
 20 26  1  0  0  0  0
 20 33  1  0  0  0  0
 22 23  1  6  0  0  0
 22 28  1  0  0  0  0
 24 25  1  6  0  0  0
 24 30  1  0  0  0  0
 26 27  1  0  0  0  0
 28 29  1  6  0  0  0
 28 32  1  0  0  0  0
 30 31  1  1  0  0  0
M  END
>  <CHROM.1>
-167.09083440,-158.73018975,-124.91631390,-179.62245304,72.80447920,-179.90696709
20.50739311,28.90702938,36.44295929,2.30542035,0.52299547,-3.10887187

>  <Name>
ligand

>  <RI>
0

>  <Rbt.Current_Directory>
/home/itssahil/PROJECTS/Mol_Feturizer/New_Systems/rnas/4p3s

>  <Rbt.Executable>
rbdock ($Id: //depot/dev/client3/rdock/2013.1/src/exe/rbdock.cxx#4 $)

>  <Rbt.Library>
libRbt.so (2013.1, Build901 2013/11/27)

>  <Rbt.Parameter_File>
/export/apps/rDock/src/rDock_2013.1_src/data/scripts/dock_solv.prm

>  <Rbt.Receptor>
prm/pocket_docking_2.prm

>  <SCORE>
-16.6393

>  <SCORE.INTER>
-11.7033

>  <SCORE.INTER.CONST>
1

>  <SCORE.INTER.POLAR>
0

>  <SCORE.INTER.ROT>
6

>  <SCORE.INTER.SOLV>
19.7009

>  <SCORE.INTER.VDW>
-21.9692

>  <SCORE.INTER.norm>
-0.344216

>  <SCORE.INTRA>
-5.03882

>  <SCORE.INTRA.DIHEDRAL>
-10.9565

>  <SCORE.INTRA.DIHEDRAL.0>
15.8194

>  <SCORE.INTRA.POLAR>
0

>  <SCORE.INTRA.POLAR.0>
0

>  <SCORE.INTRA.REPUL>
0

>  <SCORE.INTRA.REPUL.0>
0

>  <SCORE.INTRA.SOLV>
-0.106609

>  <SCORE.INTRA.SOLV.lig_0>
-71.9159

>  <SCORE.INTRA.VDW>
0.492741

>  <SCORE.INTRA.VDW.0>
-3.53918

>  <SCORE.INTRA.norm>
-0.148201

>  <SCORE.RESTR>
0.102844

>  <SCORE.RESTR.CAVITY>
0.102844

>  <SCORE.RESTR.norm>
0.00302481

>  <SCORE.SYSTEM>
0

>  <SCORE.SYSTEM.CONST>
0

>  <SCORE.SYSTEM.DIHEDRAL>
0

>  <SCORE.SYSTEM.SOLV>
0

>  <SCORE.SYSTEM.norm>
0

>  <SCORE.heavy>
34

>  <SCORE.norm>
-0.489392

>  <RMSD>
1.298

$$$$
ligand
 OpenBabel01301917533D
libRbt.so/2013.1/901 2013/11/27
 34 36  0  0  0  0  0  0  0  0999 V2000
   18.4684   27.6191   34.5569 C   0  0  2  0  0  0  0  0  0  0  0  0
   18.9026   27.1011   35.8184 O   0  0  0  0  0  0  0  0  0  0  0  0
   22.4595   27.6474   38.1534 C   0  0  2  0  0  0  0  0  0  0  0  0
   23.8567   27.5978   38.6049 N   0  0  0  0  0  0  0  0  0  0  0  0
   23.9726   30.3878   36.4487 C   0  0  2  0  0  0  0  0  0  0  0  0
   16.8992   27.4992   34.4941 C   0  0  2  0  0  0  0  0  0  0  0  0
   16.2713   28.2448   35.5967 N   0  0  0  0  0  0  0  0  0  0  0  0
   21.9944   26.1729   37.8731 C   0  0  0  0  0  0  0  0  0  0  0  0
   24.8634   30.9572   37.6224 C   0  0  2  0  0  0  0  0  0  0  0  0
   25.2188   29.9188   38.5190 O   0  0  0  0  0  0  0  0  0  0  0  0
   16.4713   26.0015   34.5485 C   0  0  1  0  0  0  0  0  0  0  0  0
   15.0374   25.8873   34.4915 O   0  0  0  0  0  0  0  0  0  0  0  0
   20.4963   26.2253   37.4095 C   0  0  2  0  0  0  0  0  0  0  0  0
   19.9876   24.8545   37.1186 N   0  0  0  0  0  0  0  0  0  0  0  0
   24.0350   32.0673   38.3733 C   0  0  1  0  0  0  0  0  0  0  0  0
   24.8011   32.6171   39.5098 N   0  0  0  0  0  0  0  0  0  0  0  0
   17.1496   25.2575   33.3744 C   0  0  2  0  0  0  0  0  0  0  0  0
   16.7595   23.8808   33.3988 O   0  0  0  0  0  0  0  0  0  0  0  0
   20.3419   27.1006   36.1291 C   0  0  2  0  0  0  0  0  0  0  0  0
   23.6715   33.2011   37.3632 C   0  0  1  0  0  0  0  0  0  0  0  0
   24.8803   33.7800   36.8826 O   0  0  0  0  0  0  0  0  0  0  0  0
   18.7249   25.4206   33.5076 C   0  0  2  0  0  0  0  0  0  0  0  0
   19.1065   26.8504   33.4908 O   0  0  0  0  0  0  0  0  0  0  0  0
   20.8726   28.5303   36.4222 C   0  0  2  0  0  0  0  0  0  0  0  0
   20.7494   29.3000   35.2280 O   0  0  0  0  0  0  0  0  0  0  0  0
   22.8683   32.5806   36.1752 C   0  0  0  0  0  0  0  0  0  0  0  0
   23.6272   31.4857   35.5246 O   0  0  0  0  0  0  0  0  0  0  0  0
   19.5003   24.7064   32.3634 C   0  0  2  0  0  0  0  0  0  0  0  0
   18.8624   24.9892   31.1131 O   0  0  0  0  0  0  0  0  0  0  0  0
   22.3670   28.5183   36.8285 C   0  0  1  0  0  0  0  0  0  0  0  0
   22.7642   29.8892   37.1070 O   0  0  0  0  0  0  0  0  0  0  0  0
   19.5260   23.2044   32.5415 C   0  0  0  0  0  0  0  0  0  0  0  0
   22.8460   34.3120   38.0139 C   0  0  0  0  0  0  0  0  0  0  0  0
   24.2806   31.9822   40.7454 C   0  0  0  0  0  0  0  0  0  0  0  0
  1  2  1  1  0  0  0
  1  6  1  0  0  0  0
  1 23  1  0  0  0  0
  3  4  1  6  0  0  0
  3  8  1  0  0  0  0
  3 30  1  0  0  0  0
  5  9  1  0  0  0  0
  5 27  1  0  0  0  0
  5 31  1  1  0  0  0
  6  7  1  1  0  0  0
  6 11  1  0  0  0  0
  8 13  1  0  0  0  0
  9 10  1  1  0  0  0
  9 15  1  0  0  0  0
 11 12  1  6  0  0  0
 11 17  1  0  0  0  0
 13 14  1  6  0  0  0
 13 19  1  0  0  0  0
 15 16  1  1  0  0  0
 15 20  1  0  0  0  0
 16 34  1  0  0  0  0
 17 18  1  1  0  0  0
 17 22  1  0  0  0  0
 19  2  1  1  0  0  0
 19 24  1  0  0  0  0
 20 21  1  6  0  0  0
 20 26  1  0  0  0  0
 20 33  1  0  0  0  0
 22 23  1  6  0  0  0
 22 28  1  0  0  0  0
 24 25  1  6  0  0  0
 24 30  1  0  0  0  0
 26 27  1  0  0  0  0
 28 29  1  6  0  0  0
 28 32  1  0  0  0  0
 30 31  1  1  0  0  0
M  END
>  <CHROM.1>
-179.93188054,-168.72178345,-101.20038242,44.49815343,115.31288884,-127.20458488
20.95548529,28.41081794,36.01349145,2.47236864,0.63776348,3.07871186

>  <Name>
ligand

>  <RI>
0

>  <Rbt.Current_Directory>
/home/itssahil/PROJECTS/Mol_Feturizer/New_Systems/rnas/4p3s

>  <Rbt.Executable>
rbdock ($Id: //depot/dev/client3/rdock/2013.1/src/exe/rbdock.cxx#4 $)

>  <Rbt.Library>
libRbt.so (2013.1, Build901 2013/11/27)

>  <Rbt.Parameter_File>
/export/apps/rDock/src/rDock_2013.1_src/data/scripts/dock_solv.prm

>  <Rbt.Receptor>
prm/blind_docking_80.prm

>  <SCORE>
-11.2329

>  <SCORE.INTER>
-12.1744

>  <SCORE.INTER.CONST>
1

>  <SCORE.INTER.POLAR>
0

>  <SCORE.INTER.ROT>
6

>  <SCORE.INTER.SOLV>
27.7029

>  <SCORE.INTER.VDW>
-24.9506

>  <SCORE.INTER.norm>
-0.358071

>  <SCORE.INTRA>
0.531947

>  <SCORE.INTRA.DIHEDRAL>
0.507601

>  <SCORE.INTRA.DIHEDRAL.0>
15.8194

>  <SCORE.INTRA.POLAR>
0

>  <SCORE.INTRA.POLAR.0>
0

>  <SCORE.INTRA.REPUL>
0

>  <SCORE.INTRA.REPUL.0>
0

>  <SCORE.INTRA.SOLV>
0.472201

>  <SCORE.INTRA.SOLV.lig_0>
-71.9159

>  <SCORE.INTRA.VDW>
0.0420459

>  <SCORE.INTRA.VDW.0>
-3.53918

>  <SCORE.INTRA.norm>
0.0156455

>  <SCORE.RESTR>
0.409547

>  <SCORE.RESTR.CAVITY>
0.409547

>  <SCORE.RESTR.norm>
0.0120455

>  <SCORE.SYSTEM>
0

>  <SCORE.SYSTEM.CONST>
0

>  <SCORE.SYSTEM.DIHEDRAL>
0

>  <SCORE.SYSTEM.SOLV>
0

>  <SCORE.SYSTEM.norm>
0

>  <SCORE.heavy>
34

>  <SCORE.norm>
-0.33038

>  <RMSD>
1.306

$$$$
ligand
 OpenBabel01301917533D
libRbt.so/2013.1/901 2013/11/27
 34 36  0  0  0  0  0  0  0  0999 V2000
   18.5130   27.6004   34.5293 C   0  0  2  0  0  0  0  0  0  0  0  0
   18.9359   27.0794   35.7935 O   0  0  0  0  0  0  0  0  0  0  0  0
   22.4677   27.6482   38.1609 C   0  0  2  0  0  0  0  0  0  0  0  0
   23.8602   27.6036   38.6273 N   0  0  0  0  0  0  0  0  0  0  0  0
   23.9989   30.3746   36.4539 C   0  0  2  0  0  0  0  0  0  0  0  0
   16.9422   27.5061   34.4635 C   0  0  2  0  0  0  0  0  0  0  0  0
   16.3242   28.2655   35.5623 N   0  0  0  0  0  0  0  0  0  0  0  0
   22.0070   26.1709   37.8877 C   0  0  0  0  0  0  0  0  0  0  0  0
   24.8761   30.9483   37.6358 C   0  0  2  0  0  0  0  0  0  0  0  0
   25.2181   29.9137   38.5420 O   0  0  0  0  0  0  0  0  0  0  0  0
   16.4895   26.0159   34.5218 C   0  0  1  0  0  0  0  0  0  0  0  0
   15.0541   25.9250   34.4620 O   0  0  0  0  0  0  0  0  0  0  0  0
   20.5137   26.2182   37.4081 C   0  0  2  0  0  0  0  0  0  0  0  0
   20.0094   24.8445   37.1231 N   0  0  0  0  0  0  0  0  0  0  0  0
   24.0406   32.0638   38.3705 C   0  0  1  0  0  0  0  0  0  0  0  0
   24.7935   32.6179   39.5137 N   0  0  0  0  0  0  0  0  0  0  0  0
   17.1580   25.2570   33.3516 C   0  0  2  0  0  0  0  0  0  0  0  0
   16.7452   23.8870   33.3796 O   0  0  0  0  0  0  0  0  0  0  0  0
   20.3719   27.0829   36.1191 C   0  0  2  0  0  0  0  0  0  0  0  0
   23.6920   33.1932   37.3501 C   0  0  1  0  0  0  0  0  0  0  0  0
   24.9079   33.7672   36.8818 O   0  0  0  0  0  0  0  0  0  0  0  0
   18.7355   25.3945   33.4877 C   0  0  2  0  0  0  0  0  0  0  0  0
   19.1406   26.8178   33.4671 O   0  0  0  0  0  0  0  0  0  0  0  0
   20.8982   28.5154   36.4062 C   0  0  2  0  0  0  0  0  0  0  0  0
   20.7867   29.2753   35.2046 O   0  0  0  0  0  0  0  0  0  0  0  0
   22.9025   32.5681   36.1554 C   0  0  0  0  0  0  0  0  0  0  0  0
   23.6672   31.4684   35.5199 O   0  0  0  0  0  0  0  0  0  0  0  0
   19.5015   24.6640   32.3476 C   0  0  2  0  0  0  0  0  0  0  0  0
   18.8815   24.9672   31.0930 O   0  0  0  0  0  0  0  0  0  0  0  0
   22.3883   28.5082   36.8281 C   0  0  1  0  0  0  0  0  0  0  0  0
   22.7813   29.8817   37.0995 O   0  0  0  0  0  0  0  0  0  0  0  0
   19.4865   23.1612   32.5208 C   0  0  0  0  0  0  0  0  0  0  0  0
   22.8606   34.3089   37.9848 C   0  0  0  0  0  0  0  0  0  0  0  0
   24.1931   32.0638   40.7519 C   0  0  0  0  0  0  0  0  0  0  0  0
  1  2  1  1  0  0  0
  1  6  1  0  0  0  0
  1 23  1  0  0  0  0
  3  4  1  6  0  0  0
  3  8  1  0  0  0  0
  3 30  1  0  0  0  0
  5  9  1  0  0  0  0
  5 27  1  0  0  0  0
  5 31  1  1  0  0  0
  6  7  1  1  0  0  0
  6 11  1  0  0  0  0
  8 13  1  0  0  0  0
  9 10  1  1  0  0  0
  9 15  1  0  0  0  0
 11 12  1  6  0  0  0
 11 17  1  0  0  0  0
 13 14  1  6  0  0  0
 13 19  1  0  0  0  0
 15 16  1  1  0  0  0
 15 20  1  0  0  0  0
 16 34  1  0  0  0  0
 17 18  1  1  0  0  0
 17 22  1  0  0  0  0
 19  2  1  1  0  0  0
 19 24  1  0  0  0  0
 20 21  1  6  0  0  0
 20 26  1  0  0  0  0
 20 33  1  0  0  0  0
 22 23  1  6  0  0  0
 22 28  1  0  0  0  0
 24 25  1  6  0  0  0
 24 30  1  0  0  0  0
 26 27  1  0  0  0  0
 28 29  1  6  0  0  0
 28 32  1  0  0  0  0
 30 31  1  1  0  0  0
M  END
>  <CHROM.1>
-178.63361800,-169.40515263,-105.12996594,45.24721947,115.08407337,-126.92316383
20.97021024,28.40470411,36.00326031,2.47611828,0.64639025,3.07146740

>  <Name>
ligand

>  <RI>
0

>  <Rbt.Current_Directory>
/home/itssahil/PROJECTS/Mol_Feturizer/New_Systems/rnas/4p3s

>  <Rbt.Executable>
rbdock ($Id: //depot/dev/client3/rdock/2013.1/src/exe/rbdock.cxx#4 $)

>  <Rbt.Library>
libRbt.so (2013.1, Build901 2013/11/27)

>  <Rbt.Parameter_File>
/export/apps/rDock/src/rDock_2013.1_src/data/scripts/dock_solv.prm

>  <Rbt.Receptor>
prm/blind_docking_80.prm

>  <SCORE>
-11.1487

>  <SCORE.INTER>
-12.0225

>  <SCORE.INTER.CONST>
1

>  <SCORE.INTER.POLAR>
0

>  <SCORE.INTER.ROT>
6

>  <SCORE.INTER.SOLV>
27.8053

>  <SCORE.INTER.VDW>
-24.8834

>  <SCORE.INTER.norm>
-0.353603

>  <SCORE.INTRA>
0.478328

>  <SCORE.INTRA.DIHEDRAL>
0.476592

>  <SCORE.INTRA.DIHEDRAL.0>
15.8194

>  <SCORE.INTRA.POLAR>
0

>  <SCORE.INTRA.POLAR.0>
0

>  <SCORE.INTRA.REPUL>
0

>  <SCORE.INTRA.REPUL.0>
0

>  <SCORE.INTRA.SOLV>
0.437787

>  <SCORE.INTRA.SOLV.lig_0>
-71.9159

>  <SCORE.INTRA.VDW>
0.0211393

>  <SCORE.INTRA.VDW.0>
-3.53918

>  <SCORE.INTRA.norm>
0.0140685

>  <SCORE.RESTR>
0.395532

>  <SCORE.RESTR.CAVITY>
0.395532

>  <SCORE.RESTR.norm>
0.0116333

>  <SCORE.SYSTEM>
0

>  <SCORE.SYSTEM.CONST>
0

>  <SCORE.SYSTEM.DIHEDRAL>
0

>  <SCORE.SYSTEM.SOLV>
0

>  <SCORE.SYSTEM.norm>
0

>  <SCORE.heavy>
34

>  <SCORE.norm>
-0.327902

>  <RMSD>
1.310

$$$$
ligand
 OpenBabel01301917533D
libRbt.so/2013.1/901 2013/11/27
 34 36  0  0  0  0  0  0  0  0999 V2000
   18.6515   27.3472   34.3410 C   0  0  2  0  0  0  0  0  0  0  0  0
   19.0018   27.0123   35.6876 O   0  0  0  0  0  0  0  0  0  0  0  0
   22.4147   27.6830   38.1985 C   0  0  2  0  0  0  0  0  0  0  0  0
   23.7839   27.6640   38.7309 N   0  0  0  0  0  0  0  0  0  0  0  0
   23.9808   30.3799   36.4367 C   0  0  2  0  0  0  0  0  0  0  0  0
   17.0802   27.3589   34.2340 C   0  0  2  0  0  0  0  0  0  0  0  0
   16.4975   28.3326   35.1713 N   0  0  0  0  0  0  0  0  0  0  0  0
   21.9763   26.1944   37.9516 C   0  0  0  0  0  0  0  0  0  0  0  0
   24.8630   30.9411   37.6209 C   0  0  2  0  0  0  0  0  0  0  0  0
   25.2056   29.8977   38.5167 O   0  0  0  0  0  0  0  0  0  0  0  0
   16.5107   25.9361   34.5173 C   0  0  1  0  0  0  0  0  0  0  0  0
   15.0744   25.9423   34.4208 O   0  0  0  0  0  0  0  0  0  0  0  0
   20.5070   26.2149   37.4013 C   0  0  2  0  0  0  0  0  0  0  0  0
   20.0251   24.8291   37.1373 N   0  0  0  0  0  0  0  0  0  0  0  0
   24.0323   32.0518   38.3683 C   0  0  1  0  0  0  0  0  0  0  0  0
   24.7901   32.5941   39.5140 N   0  0  0  0  0  0  0  0  0  0  0  0
   17.1455   24.9475   33.5114 C   0  0  2  0  0  0  0  0  0  0  0  0
   16.6261   23.6350   33.7468 O   0  0  0  0  0  0  0  0  0  0  0  0
   20.4208   27.0371   36.0800 C   0  0  2  0  0  0  0  0  0  0  0  0
   23.6830   33.1910   37.3591 C   0  0  1  0  0  0  0  0  0  0  0  0
   24.8988   33.7666   36.8921 O   0  0  0  0  0  0  0  0  0  0  0  0
   18.7253   24.9895   33.6808 C   0  0  2  0  0  0  0  0  0  0  0  0
   19.2411   26.3562   33.4439 O   0  0  0  0  0  0  0  0  0  0  0  0
   20.9242   28.4820   36.3451 C   0  0  2  0  0  0  0  0  0  0  0  0
   20.8648   29.2024   35.1158 O   0  0  0  0  0  0  0  0  0  0  0  0
   22.8883   32.5785   36.1613 C   0  0  0  0  0  0  0  0  0  0  0  0
   23.6487   31.4828   35.5136 O   0  0  0  0  0  0  0  0  0  0  0  0
   19.4587   24.0266   32.7035 C   0  0  2  0  0  0  0  0  0  0  0  0
   20.8581   24.0222   33.0069 O   0  0  0  0  0  0  0  0  0  0  0  0
   22.3928   28.4996   36.8365 C   0  0  1  0  0  0  0  0  0  0  0  0
   22.7643   29.8840   37.0818 O   0  0  0  0  0  0  0  0  0  0  0  0
   19.2989   24.4476   31.2593 C   0  0  0  0  0  0  0  0  0  0  0  0
   22.8562   34.3029   38.0064 C   0  0  0  0  0  0  0  0  0  0  0  0
   24.1970   32.0244   40.7487 C   0  0  0  0  0  0  0  0  0  0  0  0
  1  2  1  1  0  0  0
  1  6  1  0  0  0  0
  1 23  1  0  0  0  0
  3  4  1  6  0  0  0
  3  8  1  0  0  0  0
  3 30  1  0  0  0  0
  5  9  1  0  0  0  0
  5 27  1  0  0  0  0
  5 31  1  1  0  0  0
  6  7  1  1  0  0  0
  6 11  1  0  0  0  0
  8 13  1  0  0  0  0
  9 10  1  1  0  0  0
  9 15  1  0  0  0  0
 11 12  1  6  0  0  0
 11 17  1  0  0  0  0
 13 14  1  6  0  0  0
 13 19  1  0  0  0  0
 15 16  1  1  0  0  0
 15 20  1  0  0  0  0
 16 34  1  0  0  0  0
 17 18  1  1  0  0  0
 17 22  1  0  0  0  0
 19  2  1  1  0  0  0
 19 24  1  0  0  0  0
 20 21  1  6  0  0  0
 20 26  1  0  0  0  0
 20 33  1  0  0  0  0
 22 23  1  6  0  0  0
 22 28  1  0  0  0  0
 24 25  1  6  0  0  0
 24 30  1  0  0  0  0
 26 27  1  0  0  0  0
 28 29  1  1  0  0  0
 28 32  1  0  0  0  0
 30 31  1  1  0  0  0
M  END
>  <CHROM.1>
-175.26824075,-162.49702740,-104.82874764,-174.28563593,117.36818034,-124.82241571
21.04007041,28.33660948,36.02971331,2.40419823,0.58453288,-3.12782175

>  <Name>
ligand

>  <RI>
0

>  <Rbt.Current_Directory>
/home/itssahil/PROJECTS/Mol_Feturizer/New_Systems/rnas/4p3s

>  <Rbt.Executable>
rbdock ($Id: //depot/dev/client3/rdock/2013.1/src/exe/rbdock.cxx#4 $)

>  <Rbt.Library>
libRbt.so (2013.1, Build901 2013/11/27)

>  <Rbt.Parameter_File>
/export/apps/rDock/src/rDock_2013.1_src/data/scripts/dock_solv.prm

>  <Rbt.Receptor>
prm/blind_docking_80.prm

>  <SCORE>
-11.2669

>  <SCORE.INTER>
-12.4043

>  <SCORE.INTER.CONST>
1

>  <SCORE.INTER.POLAR>
0

>  <SCORE.INTER.ROT>
6

>  <SCORE.INTER.SOLV>
28.3645

>  <SCORE.INTER.VDW>
-25.3244

>  <SCORE.INTER.norm>
-0.364832

>  <SCORE.INTRA>
0.765641

>  <SCORE.INTRA.DIHEDRAL>
1.02997

>  <SCORE.INTRA.DIHEDRAL.0>
15.8194

>  <SCORE.INTRA.POLAR>
0

>  <SCORE.INTRA.POLAR.0>
0

>  <SCORE.INTRA.REPUL>
0

>  <SCORE.INTRA.REPUL.0>
0

>  <SCORE.INTRA.SOLV>
0.399562

>  <SCORE.INTRA.SOLV.lig_0>
-71.9159

>  <SCORE.INTRA.VDW>
0.0508774

>  <SCORE.INTRA.VDW.0>
-3.53918

>  <SCORE.INTRA.norm>
0.0225188

>  <SCORE.RESTR>
0.371756

>  <SCORE.RESTR.CAVITY>
0.371756

>  <SCORE.RESTR.norm>
0.010934

>  <SCORE.SYSTEM>
0

>  <SCORE.SYSTEM.CONST>
0

>  <SCORE.SYSTEM.DIHEDRAL>
0

>  <SCORE.SYSTEM.SOLV>
0

>  <SCORE.SYSTEM.norm>
0

>  <SCORE.heavy>
34

>  <SCORE.norm>
-0.331379

>  <RMSD>
1.324

$$$$
ligand
 OpenBabel01301917533D
libRbt.so/2013.1/901 2013/11/27
 34 36  0  0  0  0  0  0  0  0999 V2000
   18.6886   27.3248   34.3718 C   0  0  2  0  0  0  0  0  0  0  0  0
   19.0502   26.9855   35.7143 O   0  0  0  0  0  0  0  0  0  0  0  0
   22.4646   27.7257   38.2034 C   0  0  2  0  0  0  0  0  0  0  0  0
   23.8359   27.7285   38.7308 N   0  0  0  0  0  0  0  0  0  0  0  0
   23.9990   30.4149   36.4092 C   0  0  2  0  0  0  0  0  0  0  0  0
   17.1164   27.3334   34.2773 C   0  0  2  0  0  0  0  0  0  0  0  0
   16.5390   28.3022   35.2229 N   0  0  0  0  0  0  0  0  0  0  0  0
   22.0420   26.2292   37.9770 C   0  0  0  0  0  0  0  0  0  0  0  0
   24.8893   30.9657   37.5921 C   0  0  2  0  0  0  0  0  0  0  0  0
   25.2356   29.9151   38.4780 O   0  0  0  0  0  0  0  0  0  0  0  0
   16.5523   25.9082   34.5595 C   0  0  1  0  0  0  0  0  0  0  0  0
   15.1153   25.9116   34.4743 O   0  0  0  0  0  0  0  0  0  0  0  0
   20.5705   26.2266   37.4321 C   0  0  2  0  0  0  0  0  0  0  0  0
   20.1031   24.8323   37.1873 N   0  0  0  0  0  0  0  0  0  0  0  0
   24.0650   32.0721   38.3528 C   0  0  1  0  0  0  0  0  0  0  0  0
   24.8306   32.6046   39.4979 N   0  0  0  0  0  0  0  0  0  0  0  0
   17.1814   24.9250   33.5449 C   0  0  2  0  0  0  0  0  0  0  0  0
   16.6666   23.6104   33.7792 O   0  0  0  0  0  0  0  0  0  0  0  0
   20.4703   27.0310   36.1009 C   0  0  2  0  0  0  0  0  0  0  0  0
   23.7115   33.2195   37.3544 C   0  0  1  0  0  0  0  0  0  0  0  0
   24.9253   33.7965   36.8843 O   0  0  0  0  0  0  0  0  0  0  0  0
   18.7623   24.9698   33.7020 C   0  0  2  0  0  0  0  0  0  0  0  0
   19.2732   26.3385   33.4662 O   0  0  0  0  0  0  0  0  0  0  0  0
   20.9586   28.4846   36.3459 C   0  0  2  0  0  0  0  0  0  0  0  0
   20.8866   29.1888   35.1079 O   0  0  0  0  0  0  0  0  0  0  0  0
   22.9085   32.6172   36.1569 C   0  0  0  0  0  0  0  0  0  0  0  0
   23.6631   31.5252   35.4964 O   0  0  0  0  0  0  0  0  0  0  0  0
   19.4901   24.0123   32.7151 C   0  0  2  0  0  0  0  0  0  0  0  0
   20.8971   24.0436   32.9788 O   0  0  0  0  0  0  0  0  0  0  0  0
   22.4286   28.5247   36.8314 C   0  0  1  0  0  0  0  0  0  0  0  0
   22.7855   29.9161   37.0578 O   0  0  0  0  0  0  0  0  0  0  0  0
   19.2801   24.4123   31.2714 C   0  0  0  0  0  0  0  0  0  0  0  0
   22.8904   34.3278   38.0149 C   0  0  0  0  0  0  0  0  0  0  0  0
   24.2804   31.9834   40.7277 C   0  0  0  0  0  0  0  0  0  0  0  0
  1  2  1  1  0  0  0
  1  6  1  0  0  0  0
  1 23  1  0  0  0  0
  3  4  1  6  0  0  0
  3  8  1  0  0  0  0
  3 30  1  0  0  0  0
  5  9  1  0  0  0  0
  5 27  1  0  0  0  0
  5 31  1  1  0  0  0
  6  7  1  1  0  0  0
  6 11  1  0  0  0  0
  8 13  1  0  0  0  0
  9 10  1  1  0  0  0
  9 15  1  0  0  0  0
 11 12  1  6  0  0  0
 11 17  1  0  0  0  0
 13 14  1  6  0  0  0
 13 19  1  0  0  0  0
 15 16  1  1  0  0  0
 15 20  1  0  0  0  0
 16 34  1  0  0  0  0
 17 18  1  1  0  0  0
 17 22  1  0  0  0  0
 19  2  1  1  0  0  0
 19 24  1  0  0  0  0
 20 21  1  6  0  0  0
 20 26  1  0  0  0  0
 20 33  1  0  0  0  0
 22 23  1  6  0  0  0
 22 28  1  0  0  0  0
 24 25  1  6  0  0  0
 24 30  1  0  0  0  0
 26 27  1  0  0  0  0
 28 29  1  1  0  0  0
 28 32  1  0  0  0  0
 30 31  1  1  0  0  0
M  END
>  <CHROM.1>
-174.38675004,-163.70187977,-102.53736093,-176.17173974,116.96937689,-123.31580416
21.07716082,28.34086202,36.03743182,2.40498926,0.58756487,-3.13764729

>  <Name>
ligand

>  <RI>
0

>  <Rbt.Current_Directory>
/home/itssahil/PROJECTS/Mol_Feturizer/New_Systems/rnas/4p3s

>  <Rbt.Executable>
rbdock ($Id: //depot/dev/client3/rdock/2013.1/src/exe/rbdock.cxx#4 $)

>  <Rbt.Library>
libRbt.so (2013.1, Build901 2013/11/27)

>  <Rbt.Parameter_File>
/export/apps/rDock/src/rDock_2013.1_src/data/scripts/dock_solv.prm

>  <Rbt.Receptor>
prm/blind_docking_80.prm

>  <SCORE>
-11.3476

>  <SCORE.INTER>
-12.5218

>  <SCORE.INTER.CONST>
1

>  <SCORE.INTER.POLAR>
0

>  <SCORE.INTER.ROT>
6

>  <SCORE.INTER.SOLV>
28.3611

>  <SCORE.INTER.VDW>
-25.4015

>  <SCORE.INTER.norm>
-0.368287

>  <SCORE.INTRA>
0.803175

>  <SCORE.INTRA.DIHEDRAL>
0.824757

>  <SCORE.INTRA.DIHEDRAL.0>
15.8194

>  <SCORE.INTRA.POLAR>
0

>  <SCORE.INTRA.POLAR.0>
0

>  <SCORE.INTRA.REPUL>
0

>  <SCORE.INTRA.REPUL.0>
0

>  <SCORE.INTRA.SOLV>
0.434893

>  <SCORE.INTRA.SOLV.lig_0>
-71.9159

>  <SCORE.INTRA.VDW>
0.17335

>  <SCORE.INTRA.VDW.0>
-3.53918

>  <SCORE.INTRA.norm>
0.0236228

>  <SCORE.RESTR>
0.37094

>  <SCORE.RESTR.CAVITY>
0.37094

>  <SCORE.RESTR.norm>
0.01091

>  <SCORE.SYSTEM>
0

>  <SCORE.SYSTEM.CONST>
0

>  <SCORE.SYSTEM.DIHEDRAL>
0

>  <SCORE.SYSTEM.SOLV>
0

>  <SCORE.SYSTEM.norm>
0

>  <SCORE.heavy>
34

>  <SCORE.norm>
-0.333754

>  <RMSD>
1.325

$$$$
ligand
 OpenBabel01301917533D
libRbt.so/2013.1/901 2013/11/27
 34 36  0  0  0  0  0  0  0  0999 V2000
   18.1337   27.9256   35.2204 C   0  0  2  0  0  0  0  0  0  0  0  0
   18.6911   27.3508   36.4066 O   0  0  0  0  0  0  0  0  0  0  0  0
   22.2325   28.0265   38.7312 C   0  0  2  0  0  0  0  0  0  0  0  0
   23.6415   28.1312   39.1340 N   0  0  0  0  0  0  0  0  0  0  0  0
   23.4659   30.8712   38.4893 C   0  0  2  0  0  0  0  0  0  0  0  0
   16.5689   27.7586   35.2860 C   0  0  2  0  0  0  0  0  0  0  0  0
   16.0202   28.4194   36.4811 N   0  0  0  0  0  0  0  0  0  0  0  0
   22.0043   26.5808   38.1594 C   0  0  0  0  0  0  0  0  0  0  0  0
   23.3200   32.3616   38.9923 C   0  0  2  0  0  0  0  0  0  0  0  0
   22.5320   32.4089   40.1693 O   0  0  0  0  0  0  0  0  0  0  0  0
   16.1885   26.2472   35.2876 C   0  0  1  0  0  0  0  0  0  0  0  0
   14.7588   26.0899   35.3477 O   0  0  0  0  0  0  0  0  0  0  0  0
   20.4947   26.4637   37.7475 C   0  0  2  0  0  0  0  0  0  0  0  0
   20.2058   25.1125   37.1879 N   0  0  0  0  0  0  0  0  0  0  0  0
   22.6405   33.2022   37.8460 C   0  0  1  0  0  0  0  0  0  0  0  0
   22.4414   34.6032   38.2683 N   0  0  0  0  0  0  0  0  0  0  0  0
   16.7810   25.5937   34.0172 C   0  0  2  0  0  0  0  0  0  0  0  0
   16.4324   24.2060   33.9930 O   0  0  0  0  0  0  0  0  0  0  0  0
   20.1255   27.5387   36.6810 C   0  0  2  0  0  0  0  0  0  0  0  0
   23.5383   33.1412   36.5699 C   0  0  1  0  0  0  0  0  0  0  0  0
   24.7994   33.7257   36.8789 O   0  0  0  0  0  0  0  0  0  0  0  0
   18.3569   25.8000   34.0236 C   0  0  2  0  0  0  0  0  0  0  0  0
   18.6963   27.2400   34.0593 O   0  0  0  0  0  0  0  0  0  0  0  0
   20.4265   28.9500   37.2547 C   0  0  2  0  0  0  0  0  0  0  0  0
   20.1103   29.9112   36.2498 O   0  0  0  0  0  0  0  0  0  0  0  0
   23.7300   31.6461   36.1585 C   0  0  0  0  0  0  0  0  0  0  0  0
   24.2996   30.8491   37.2714 O   0  0  0  0  0  0  0  0  0  0  0  0
   19.0480   25.1777   32.7763 C   0  0  2  0  0  0  0  0  0  0  0  0
   18.3100   25.5329   31.6019 O   0  0  0  0  0  0  0  0  0  0  0  0
   21.9224   29.1170   37.6190 C   0  0  1  0  0  0  0  0  0  0  0  0
   22.1010   30.4513   38.1688 O   0  0  0  0  0  0  0  0  0  0  0  0
   19.1053   23.6677   32.8488 C   0  0  0  0  0  0  0  0  0  0  0  0
   22.9344   33.9202   35.4006 C   0  0  0  0  0  0  0  0  0  0  0  0
   20.9925   34.9004   38.1532 C   0  0  0  0  0  0  0  0  0  0  0  0
  1  2  1  1  0  0  0
  1  6  1  0  0  0  0
  1 23  1  0  0  0  0
  3  4  1  6  0  0  0
  3  8  1  0  0  0  0
  3 30  1  0  0  0  0
  5  9  1  0  0  0  0
  5 27  1  0  0  0  0
  5 31  1  6  0  0  0
  6  7  1  1  0  0  0
  6 11  1  0  0  0  0
  8 13  1  0  0  0  0
  9 10  1  1  0  0  0
  9 15  1  0  0  0  0
 11 12  1  6  0  0  0
 11 17  1  0  0  0  0
 13 14  1  6  0  0  0
 13 19  1  0  0  0  0
 15 16  1  1  0  0  0
 15 20  1  0  0  0  0
 16 34  1  0  0  0  0
 17 18  1  1  0  0  0
 17 22  1  0  0  0  0
 19  2  1  1  0  0  0
 19 24  1  0  0  0  0
 20 21  1  1  0  0  0
 20 26  1  0  0  0  0
 20 33  1  0  0  0  0
 22 23  1  6  0  0  0
 22 28  1  0  0  0  0
 24 25  1  6  0  0  0
 24 30  1  0  0  0  0
 26 27  1  0  0  0  0
 28 29  1  6  0  0  0
 28 32  1  0  0  0  0
 30 31  1  1  0  0  0
M  END
>  <CHROM.1>
-171.72455595,-162.89903453,-122.41071299,45.64636211,69.24868658,177.49544634
20.43171425,28.91860882,36.40228167,2.32918728,0.54821675,-3.12795605

>  <Name>
ligand

>  <RI>
0

>  <Rbt.Current_Directory>
/home/itssahil/PROJECTS/Mol_Feturizer/New_Systems/rnas/4p3s

>  <Rbt.Executable>
rbdock ($Id: //depot/dev/client3/rdock/2013.1/src/exe/rbdock.cxx#4 $)

>  <Rbt.Library>
libRbt.so (2013.1, Build901 2013/11/27)

>  <Rbt.Parameter_File>
/export/apps/rDock/src/rDock_2013.1_src/data/scripts/dock_solv.prm

>  <Rbt.Receptor>
prm/pocket_docking_2.prm

>  <SCORE>
-16.9239

>  <SCORE.INTER>
-11.8062

>  <SCORE.INTER.CONST>
1

>  <SCORE.INTER.POLAR>
0

>  <SCORE.INTER.ROT>
6

>  <SCORE.INTER.SOLV>
19.113

>  <SCORE.INTER.VDW>
-21.8418

>  <SCORE.INTER.norm>
-0.34724

>  <SCORE.INTRA>
-5.32037

>  <SCORE.INTRA.DIHEDRAL>
-11.6888

>  <SCORE.INTRA.DIHEDRAL.0>
15.8194

>  <SCORE.INTRA.POLAR>
0

>  <SCORE.INTRA.POLAR.0>
0

>  <SCORE.INTRA.REPUL>
0

>  <SCORE.INTRA.REPUL.0>
0

>  <SCORE.INTRA.SOLV>
0.0311123

>  <SCORE.INTRA.SOLV.lig_0>
-71.9159

>  <SCORE.INTRA.VDW>
0.508452

>  <SCORE.INTRA.VDW.0>
-3.53918

>  <SCORE.INTRA.norm>
-0.156482

>  <SCORE.RESTR>
0.202671

>  <SCORE.RESTR.CAVITY>
0.202671

>  <SCORE.RESTR.norm>
0.0059609

>  <SCORE.SYSTEM>
0

>  <SCORE.SYSTEM.CONST>
0

>  <SCORE.SYSTEM.DIHEDRAL>
0

>  <SCORE.SYSTEM.SOLV>
0

>  <SCORE.SYSTEM.norm>
0

>  <SCORE.heavy>
34

>  <SCORE.norm>
-0.497761

>  <RMSD>
1.336

$$$$
ligand
 OpenBabel01301917533D
libRbt.so/2013.1/901 2013/11/27
 34 36  0  0  0  0  0  0  0  0999 V2000
   18.1353   27.9691   35.3392 C   0  0  2  0  0  0  0  0  0  0  0  0
   18.6785   27.3235   36.4952 O   0  0  0  0  0  0  0  0  0  0  0  0
   22.1734   28.0318   38.8797 C   0  0  2  0  0  0  0  0  0  0  0  0
   23.5738   28.1263   39.3142 N   0  0  0  0  0  0  0  0  0  0  0  0
   23.4783   30.8557   38.4937 C   0  0  2  0  0  0  0  0  0  0  0  0
   16.5664   27.8450   35.4030 C   0  0  2  0  0  0  0  0  0  0  0  0
   16.0403   28.4650   36.6298 N   0  0  0  0  0  0  0  0  0  0  0  0
   21.9295   26.5668   38.3664 C   0  0  0  0  0  0  0  0  0  0  0  0
   23.3432   32.3555   38.9709 C   0  0  2  0  0  0  0  0  0  0  0  0
   22.5781   32.4260   40.1618 O   0  0  0  0  0  0  0  0  0  0  0  0
   16.1418   26.3470   35.3356 C   0  0  1  0  0  0  0  0  0  0  0  0
   14.7083   26.2289   35.3937 O   0  0  0  0  0  0  0  0  0  0  0  0
   20.4287   26.4614   37.9207 C   0  0  2  0  0  0  0  0  0  0  0  0
   20.1257   25.0926   37.4138 N   0  0  0  0  0  0  0  0  0  0  0  0
   22.6423   33.1748   37.8221 C   0  0  1  0  0  0  0  0  0  0  0  0
   22.4523   34.5839   38.2214 N   0  0  0  0  0  0  0  0  0  0  0  0
   16.7118   25.7366   34.0338 C   0  0  2  0  0  0  0  0  0  0  0  0
   16.3224   24.3623   33.9461 O   0  0  0  0  0  0  0  0  0  0  0  0
   20.1091   27.4948   36.7985 C   0  0  2  0  0  0  0  0  0  0  0  0
   23.5153   33.0886   36.5304 C   0  0  1  0  0  0  0  0  0  0  0  0
   24.7825   33.6774   36.8038 O   0  0  0  0  0  0  0  0  0  0  0  0
   18.2931   25.8962   34.0437 C   0  0  2  0  0  0  0  0  0  0  0  0
   18.6747   27.3224   34.1453 O   0  0  0  0  0  0  0  0  0  0  0  0
   20.4251   28.9241   37.3171 C   0  0  2  0  0  0  0  0  0  0  0  0
   20.1546   29.8457   36.2629 O   0  0  0  0  0  0  0  0  0  0  0  0
   23.6980   31.5857   36.1439 C   0  0  0  0  0  0  0  0  0  0  0  0
   24.2883   30.8094   37.2606 O   0  0  0  0  0  0  0  0  0  0  0  0
   18.9624   25.3130   32.7661 C   0  0  2  0  0  0  0  0  0  0  0  0
   18.2704   25.7951   31.6091 O   0  0  0  0  0  0  0  0  0  0  0  0
   21.9145   29.0775   37.7127 C   0  0  1  0  0  0  0  0  0  0  0  0
   22.1071   30.4312   38.2077 O   0  0  0  0  0  0  0  0  0  0  0  0
   18.9174   23.8012   32.7369 C   0  0  0  0  0  0  0  0  0  0  0  0
   22.8895   33.8458   35.3583 C   0  0  0  0  0  0  0  0  0  0  0  0
   21.0119   34.9007   38.0619 C   0  0  0  0  0  0  0  0  0  0  0  0
  1  2  1  1  0  0  0
  1  6  1  0  0  0  0
  1 23  1  0  0  0  0
  3  4  1  6  0  0  0
  3  8  1  0  0  0  0
  3 30  1  0  0  0  0
  5  9  1  0  0  0  0
  5 27  1  0  0  0  0
  5 31  1  6  0  0  0
  6  7  1  1  0  0  0
  6 11  1  0  0  0  0
  8 13  1  0  0  0  0
  9 10  1  1  0  0  0
  9 15  1  0  0  0  0
 11 12  1  6  0  0  0
 11 17  1  0  0  0  0
 13 14  1  6  0  0  0
 13 19  1  0  0  0  0
 15 16  1  1  0  0  0
 15 20  1  0  0  0  0
 16 34  1  0  0  0  0
 17 18  1  1  0  0  0
 17 22  1  0  0  0  0
 19  2  1  1  0  0  0
 19 24  1  0  0  0  0
 20 21  1  1  0  0  0
 20 26  1  0  0  0  0
 20 33  1  0  0  0  0
 22 23  1  6  0  0  0
 22 28  1  0  0  0  0
 24 25  1  6  0  0  0
 24 30  1  0  0  0  0
 26 27  1  0  0  0  0
 28 29  1  6  0  0  0
 28 32  1  0  0  0  0
 30 31  1  1  0  0  0
M  END
>  <CHROM.1>
-169.61767333,-169.09852467,-125.26234394,48.34369288,71.65579438,178.71936136
20.40229965,28.94421664,36.44185556,2.43062026,0.65742524,3.00118939

>  <Name>
ligand

>  <RI>
0

>  <Rbt.Current_Directory>
/home/itssahil/PROJECTS/Mol_Feturizer/New_Systems/rnas/4p3s

>  <Rbt.Executable>
rbdock ($Id: //depot/dev/client3/rdock/2013.1/src/exe/rbdock.cxx#4 $)

>  <Rbt.Library>
libRbt.so (2013.1, Build901 2013/11/27)

>  <Rbt.Parameter_File>
/export/apps/rDock/src/rDock_2013.1_src/data/scripts/dock_solv.prm

>  <Rbt.Receptor>
prm/pocket_docking_2.prm

>  <SCORE>
-16.5869

>  <SCORE.INTER>
-11.0819

>  <SCORE.INTER.CONST>
1

>  <SCORE.INTER.POLAR>
0

>  <SCORE.INTER.ROT>
6

>  <SCORE.INTER.SOLV>
19.2727

>  <SCORE.INTER.VDW>
-21.4122

>  <SCORE.INTER.norm>
-0.325937

>  <SCORE.INTRA>
-5.62749

>  <SCORE.INTRA.DIHEDRAL>
-12.3241

>  <SCORE.INTRA.DIHEDRAL.0>
15.8194

>  <SCORE.INTRA.POLAR>
0

>  <SCORE.INTRA.POLAR.0>
0

>  <SCORE.INTRA.REPUL>
0

>  <SCORE.INTRA.REPUL.0>
0

>  <SCORE.INTRA.SOLV>
-0.382477

>  <SCORE.INTRA.SOLV.lig_0>
-71.9159

>  <SCORE.INTRA.VDW>
0.725778

>  <SCORE.INTRA.VDW.0>
-3.53918

>  <SCORE.INTRA.norm>
-0.165514

>  <SCORE.RESTR>
0.122461

>  <SCORE.RESTR.CAVITY>
0.122461

>  <SCORE.RESTR.norm>
0.0036018

>  <SCORE.SYSTEM>
0

>  <SCORE.SYSTEM.CONST>
0

>  <SCORE.SYSTEM.DIHEDRAL>
0

>  <SCORE.SYSTEM.SOLV>
0

>  <SCORE.SYSTEM.norm>
0

>  <SCORE.heavy>
34

>  <SCORE.norm>
-0.487849

>  <RMSD>
1.357

$$$$
ligand
 OpenBabel01301917533D
libRbt.so/2013.1/901 2013/11/27
 34 36  0  0  0  0  0  0  0  0999 V2000
   18.5394   27.5192   34.4620 C   0  0  2  0  0  0  0  0  0  0  0  0
   18.9508   27.0609   35.7538 O   0  0  0  0  0  0  0  0  0  0  0  0
   22.4581   27.6734   38.1468 C   0  0  2  0  0  0  0  0  0  0  0  0
   23.8471   27.6437   38.6247 N   0  0  0  0  0  0  0  0  0  0  0  0
   23.9683   30.4104   36.4232 C   0  0  2  0  0  0  0  0  0  0  0  0
   16.9788   27.3360   34.3534 C   0  0  2  0  0  0  0  0  0  0  0  0
   16.2868   28.0929   35.4090 N   0  0  0  0  0  0  0  0  0  0  0  0
   22.0127   26.1907   37.8775 C   0  0  0  0  0  0  0  0  0  0  0  0
   24.8565   30.9734   37.6019 C   0  0  2  0  0  0  0  0  0  0  0  0
   25.2133   29.9293   38.4914 O   0  0  0  0  0  0  0  0  0  0  0  0
   16.6065   25.8254   34.4459 C   0  0  1  0  0  0  0  0  0  0  0  0
   15.1806   25.6533   34.3472 O   0  0  0  0  0  0  0  0  0  0  0  0
   20.5230   26.2221   37.3856 C   0  0  2  0  0  0  0  0  0  0  0  0
   20.0333   24.8425   37.1037 N   0  0  0  0  0  0  0  0  0  0  0  0
   24.0246   32.0760   38.3599 C   0  0  1  0  0  0  0  0  0  0  0  0
   24.7882   32.6195   39.5012 N   0  0  0  0  0  0  0  0  0  0  0  0
   17.3512   25.0698   33.3205 C   0  0  2  0  0  0  0  0  0  0  0  0
   17.0130   23.6805   33.3801 O   0  0  0  0  0  0  0  0  0  0  0  0
   20.3840   27.0789   36.0911 C   0  0  2  0  0  0  0  0  0  0  0  0
   23.6595   33.2163   37.3576 C   0  0  1  0  0  0  0  0  0  0  0  0
   24.8675   33.8015   36.8825 O   0  0  0  0  0  0  0  0  0  0  0  0
   18.9139   25.2986   33.4981 C   0  0  2  0  0  0  0  0  0  0  0  0
   19.2412   26.7409   33.4440 O   0  0  0  0  0  0  0  0  0  0  0  0
   20.8952   28.5176   36.3749 C   0  0  2  0  0  0  0  0  0  0  0  0
   20.7867   29.2703   35.1686 O   0  0  0  0  0  0  0  0  0  0  0  0
   22.8590   32.6025   36.1643 C   0  0  0  0  0  0  0  0  0  0  0  0
   23.6213   31.5141   35.5066 O   0  0  0  0  0  0  0  0  0  0  0  0
   19.7534   24.5776   32.4046 C   0  0  2  0  0  0  0  0  0  0  0  0
   19.1529   24.8022   31.1243 O   0  0  0  0  0  0  0  0  0  0  0  0
   22.3818   28.5258   36.8089 C   0  0  1  0  0  0  0  0  0  0  0  0
   22.7604   29.9042   37.0765 O   0  0  0  0  0  0  0  0  0  0  0  0
   19.8209   23.0830   32.6291 C   0  0  0  0  0  0  0  0  0  0  0  0
   22.8306   34.3205   38.0154 C   0  0  0  0  0  0  0  0  0  0  0  0
   24.1647   32.0974   40.7420 C   0  0  0  0  0  0  0  0  0  0  0  0
  1  2  1  1  0  0  0
  1  6  1  0  0  0  0
  1 23  1  0  0  0  0
  3  4  1  6  0  0  0
  3  8  1  0  0  0  0
  3 30  1  0  0  0  0
  5  9  1  0  0  0  0
  5 27  1  0  0  0  0
  5 31  1  1  0  0  0
  6  7  1  1  0  0  0
  6 11  1  0  0  0  0
  8 13  1  0  0  0  0
  9 10  1  1  0  0  0
  9 15  1  0  0  0  0
 11 12  1  6  0  0  0
 11 17  1  0  0  0  0
 13 14  1  6  0  0  0
 13 19  1  0  0  0  0
 15 16  1  1  0  0  0
 15 20  1  0  0  0  0
 16 34  1  0  0  0  0
 17 18  1  1  0  0  0
 17 22  1  0  0  0  0
 19  2  1  1  0  0  0
 19 24  1  0  0  0  0
 20 21  1  6  0  0  0
 20 26  1  0  0  0  0
 20 33  1  0  0  0  0
 22 23  1  6  0  0  0
 22 28  1  0  0  0  0
 24 25  1  6  0  0  0
 24 30  1  0  0  0  0
 26 27  1  0  0  0  0
 28 29  1  6  0  0  0
 28 32  1  0  0  0  0
 30 31  1  1  0  0  0
M  END
>  <CHROM.1>
177.75276252,-166.79917802,-107.71410403,44.95346618,115.92898429,-125.98499650
21.01802714,28.36259854,35.98213962,2.43597115,0.64108873,3.10148207

>  <Name>
ligand

>  <RI>
0

>  <Rbt.Current_Directory>
/home/itssahil/PROJECTS/Mol_Feturizer/New_Systems/rnas/4p3s

>  <Rbt.Executable>
rbdock ($Id: //depot/dev/client3/rdock/2013.1/src/exe/rbdock.cxx#4 $)

>  <Rbt.Library>
libRbt.so (2013.1, Build901 2013/11/27)

>  <Rbt.Parameter_File>
/export/apps/rDock/src/rDock_2013.1_src/data/scripts/dock_solv.prm

>  <Rbt.Receptor>
prm/blind_docking_80.prm

>  <SCORE>
-11.1495

>  <SCORE.INTER>
-12.3329

>  <SCORE.INTER.CONST>
1

>  <SCORE.INTER.POLAR>
0

>  <SCORE.INTER.ROT>
6

>  <SCORE.INTER.SOLV>
27.6778

>  <SCORE.INTER.VDW>
-25.0479

>  <SCORE.INTER.norm>
-0.362734

>  <SCORE.INTRA>
0.755144

>  <SCORE.INTRA.DIHEDRAL>
0.954411

>  <SCORE.INTRA.DIHEDRAL.0>
15.8194

>  <SCORE.INTRA.POLAR>
0

>  <SCORE.INTRA.POLAR.0>
0

>  <SCORE.INTRA.REPUL>
0

>  <SCORE.INTRA.REPUL.0>
0

>  <SCORE.INTRA.SOLV>
0.601197

>  <SCORE.INTRA.SOLV.lig_0>
-71.9159

>  <SCORE.INTRA.VDW>
-0.02266

>  <SCORE.INTRA.VDW.0>
-3.53918

>  <SCORE.INTRA.norm>
0.0222101

>  <SCORE.RESTR>
0.428325

>  <SCORE.RESTR.CAVITY>
0.428325

>  <SCORE.RESTR.norm>
0.0125978

>  <SCORE.SYSTEM>
0

>  <SCORE.SYSTEM.CONST>
0

>  <SCORE.SYSTEM.DIHEDRAL>
0

>  <SCORE.SYSTEM.SOLV>
0

>  <SCORE.SYSTEM.norm>
0

>  <SCORE.heavy>
34

>  <SCORE.norm>
-0.327926

>  <RMSD>
1.360

$$$$
ligand
 OpenBabel01301917533D
libRbt.so/2013.1/901 2013/11/27
 34 36  0  0  0  0  0  0  0  0999 V2000
   18.5082   27.5535   34.5245 C   0  0  2  0  0  0  0  0  0  0  0  0
   18.9244   27.0456   35.7961 O   0  0  0  0  0  0  0  0  0  0  0  0
   22.4433   27.6410   38.1763 C   0  0  2  0  0  0  0  0  0  0  0  0
   23.8333   27.6020   38.6507 N   0  0  0  0  0  0  0  0  0  0  0  0
   23.9813   30.3503   36.4461 C   0  0  2  0  0  0  0  0  0  0  0  0
   16.9474   27.3734   34.4143 C   0  0  2  0  0  0  0  0  0  0  0  0
   16.2585   28.0880   35.5009 N   0  0  0  0  0  0  0  0  0  0  0  0
   21.9845   26.1608   37.9165 C   0  0  0  0  0  0  0  0  0  0  0  0
   24.8650   30.9137   37.6281 C   0  0  2  0  0  0  0  0  0  0  0  0
   25.2023   29.8735   38.5295 O   0  0  0  0  0  0  0  0  0  0  0  0
   16.5764   25.8600   34.4492 C   0  0  1  0  0  0  0  0  0  0  0  0
   15.1504   25.6907   34.3489 O   0  0  0  0  0  0  0  0  0  0  0  0
   20.4938   26.2023   37.4284 C   0  0  2  0  0  0  0  0  0  0  0  0
   19.9914   24.8255   37.1555 N   0  0  0  0  0  0  0  0  0  0  0  0
   24.0387   32.0319   38.3690 C   0  0  1  0  0  0  0  0  0  0  0  0
   24.7980   32.5767   39.5125 N   0  0  0  0  0  0  0  0  0  0  0  0
   17.3177   25.1494   33.2926 C   0  0  2  0  0  0  0  0  0  0  0  0
   16.9808   23.7585   33.2992 O   0  0  0  0  0  0  0  0  0  0  0  0
   20.3587   27.0531   36.1295 C   0  0  2  0  0  0  0  0  0  0  0  0
   23.6953   33.1675   37.3537 C   0  0  1  0  0  0  0  0  0  0  0  0
   24.9139   33.7352   36.8847 O   0  0  0  0  0  0  0  0  0  0  0  0
   18.8809   25.3725   33.4736 C   0  0  2  0  0  0  0  0  0  0  0  0
   19.2070   26.8160   33.4746 O   0  0  0  0  0  0  0  0  0  0  0  0
   20.8830   28.4888   36.4039 C   0  0  2  0  0  0  0  0  0  0  0  0
   20.7778   29.2357   35.1936 O   0  0  0  0  0  0  0  0  0  0  0  0
   22.8988   32.5522   36.1584 C   0  0  0  0  0  0  0  0  0  0  0  0
   23.6548   31.4499   35.5170 O   0  0  0  0  0  0  0  0  0  0  0  0
   19.7171   24.6953   32.3499 C   0  0  2  0  0  0  0  0  0  0  0  0
   19.1300   24.9955   31.0790 O   0  0  0  0  0  0  0  0  0  0  0  0
   22.3708   28.4867   36.8339 C   0  0  1  0  0  0  0  0  0  0  0  0
   22.7620   29.8631   37.0927 O   0  0  0  0  0  0  0  0  0  0  0  0
   19.7591   23.1903   32.4973 C   0  0  0  0  0  0  0  0  0  0  0  0
   22.8728   34.2864   37.9945 C   0  0  0  0  0  0  0  0  0  0  0  0
   24.1528   32.0788   40.7521 C   0  0  0  0  0  0  0  0  0  0  0  0
  1  2  1  1  0  0  0
  1  6  1  0  0  0  0
  1 23  1  0  0  0  0
  3  4  1  6  0  0  0
  3  8  1  0  0  0  0
  3 30  1  0  0  0  0
  5  9  1  0  0  0  0
  5 27  1  0  0  0  0
  5 31  1  1  0  0  0
  6  7  1  1  0  0  0
  6 11  1  0  0  0  0
  8 13  1  0  0  0  0
  9 10  1  1  0  0  0
  9 15  1  0  0  0  0
 11 12  1  6  0  0  0
 11 17  1  0  0  0  0
 13 14  1  6  0  0  0
 13 19  1  0  0  0  0
 15 16  1  1  0  0  0
 15 20  1  0  0  0  0
 16 34  1  0  0  0  0
 17 18  1  1  0  0  0
 17 22  1  0  0  0  0
 19  2  1  1  0  0  0
 19 24  1  0  0  0  0
 20 21  1  6  0  0  0
 20 26  1  0  0  0  0
 20 33  1  0  0  0  0
 22 23  1  6  0  0  0
 22 28  1  0  0  0  0
 24 25  1  6  0  0  0
 24 30  1  0  0  0  0
 26 27  1  0  0  0  0
 28 29  1  6  0  0  0
 28 32  1  0  0  0  0
 30 31  1  1  0  0  0
M  END
>  <CHROM.1>
177.82167612,-169.44063258,-108.04156481,46.31125014,115.21333208,-125.96425377
21.00654018,28.36302723,35.99168140,2.48232010,0.67270308,3.04775268

>  <Name>
ligand

>  <RI>
0

>  <Rbt.Current_Directory>
/home/itssahil/PROJECTS/Mol_Feturizer/New_Systems/rnas/4p3s

>  <Rbt.Executable>
rbdock ($Id: //depot/dev/client3/rdock/2013.1/src/exe/rbdock.cxx#4 $)

>  <Rbt.Library>
libRbt.so (2013.1, Build901 2013/11/27)

>  <Rbt.Parameter_File>
/export/apps/rDock/src/rDock_2013.1_src/data/scripts/dock_solv.prm

>  <Rbt.Receptor>
prm/blind_docking_80.prm

>  <SCORE>
-10.8561

>  <SCORE.INTER>
-11.8139

>  <SCORE.INTER.CONST>
1

>  <SCORE.INTER.POLAR>
0

>  <SCORE.INTER.ROT>
6

>  <SCORE.INTER.SOLV>
28.0163

>  <SCORE.INTER.VDW>
-24.8147

>  <SCORE.INTER.norm>
-0.347466

>  <SCORE.INTRA>
0.612264

>  <SCORE.INTRA.DIHEDRAL>
0.511648

>  <SCORE.INTRA.DIHEDRAL.0>
15.8194

>  <SCORE.INTRA.POLAR>
0

>  <SCORE.INTRA.POLAR.0>
0

>  <SCORE.INTRA.REPUL>
0

>  <SCORE.INTRA.REPUL.0>
0

>  <SCORE.INTRA.SOLV>
0.508385

>  <SCORE.INTRA.SOLV.lig_0>
-71.9159

>  <SCORE.INTRA.VDW>
0.102247

>  <SCORE.INTRA.VDW.0>
-3.53918

>  <SCORE.INTRA.norm>
0.0180078

>  <SCORE.RESTR>
0.345457

>  <SCORE.RESTR.CAVITY>
0.345457

>  <SCORE.RESTR.norm>
0.0101605

>  <SCORE.SYSTEM>
0

>  <SCORE.SYSTEM.CONST>
0

>  <SCORE.SYSTEM.DIHEDRAL>
0

>  <SCORE.SYSTEM.SOLV>
0

>  <SCORE.SYSTEM.norm>
0

>  <SCORE.heavy>
34

>  <SCORE.norm>
-0.319298

>  <RMSD>
1.374

$$$$
ligand
 OpenBabel01301917533D
libRbt.so/2013.1/901 2013/11/27
 34 36  0  0  0  0  0  0  0  0999 V2000
   17.7685   28.0622   35.4396 C   0  0  2  0  0  0  0  0  0  0  0  0
   18.4054   27.4635   36.5728 O   0  0  0  0  0  0  0  0  0  0  0  0
   21.9920   28.1100   38.8356 C   0  0  2  0  0  0  0  0  0  0  0  0
   23.4057   28.2860   39.1948 N   0  0  0  0  0  0  0  0  0  0  0  0
   22.9545   31.0880   38.9562 C   0  0  2  0  0  0  0  0  0  0  0  0
   16.2378   27.6947   35.4895 C   0  0  2  0  0  0  0  0  0  0  0  0
   15.6225   28.1774   36.7362 N   0  0  0  0  0  0  0  0  0  0  0  0
   21.8625   26.7541   38.0521 C   0  0  0  0  0  0  0  0  0  0  0  0
   22.7148   32.2749   39.9707 C   0  0  2  0  0  0  0  0  0  0  0  0
   22.1386   31.7881   41.1705 O   0  0  0  0  0  0  0  0  0  0  0  0
   16.0499   26.1529   35.3616 C   0  0  1  0  0  0  0  0  0  0  0  0
   14.6519   25.8125   35.4069 O   0  0  0  0  0  0  0  0  0  0  0  0
   20.3494   26.5577   37.6858 C   0  0  2  0  0  0  0  0  0  0  0  0
   20.1517   25.2871   36.9316 N   0  0  0  0  0  0  0  0  0  0  0  0
   21.7526   33.3184   39.2870 C   0  0  1  0  0  0  0  0  0  0  0  0
   21.4582   34.4403   40.2010 N   0  0  0  0  0  0  0  0  0  0  0  0
   16.7070   25.6893   34.0405 C   0  0  2  0  0  0  0  0  0  0  0  0
   16.5349   24.2759   33.8974 O   0  0  0  0  0  0  0  0  0  0  0  0
   19.8301   27.7434   36.8175 C   0  0  2  0  0  0  0  0  0  0  0  0
   22.4211   33.8448   37.9776 C   0  0  1  0  0  0  0  0  0  0  0  0
   23.6352   34.5024   38.3255 O   0  0  0  0  0  0  0  0  0  0  0  0
   18.2446   26.0909   34.0657 C   0  0  2  0  0  0  0  0  0  0  0  0
   18.4011   27.5539   34.2246 O   0  0  0  0  0  0  0  0  0  0  0  0
   20.0353   29.0721   37.5946 C   0  0  2  0  0  0  0  0  0  0  0  0
   19.5821   30.1416   36.7671 O   0  0  0  0  0  0  0  0  0  0  0  0
   22.7216   32.6308   37.0409 C   0  0  0  0  0  0  0  0  0  0  0  0
   23.5653   31.6198   37.7221 O   0  0  0  0  0  0  0  0  0  0  0  0
   18.9958   25.6687   32.7704 C   0  0  2  0  0  0  0  0  0  0  0  0
   18.2003   26.0123   31.6305 O   0  0  0  0  0  0  0  0  0  0  0  0
   21.5278   29.3236   37.9223 C   0  0  1  0  0  0  0  0  0  0  0  0
   21.6167   30.5686   38.6685 O   0  0  0  0  0  0  0  0  0  0  0  0
   19.2572   24.1794   32.7212 C   0  0  0  0  0  0  0  0  0  0  0  0
   21.5364   34.8521   37.2417 C   0  0  0  0  0  0  0  0  0  0  0  0
   20.0528   34.2895   40.6514 C   0  0  0  0  0  0  0  0  0  0  0  0
  1  2  1  1  0  0  0
  1  6  1  0  0  0  0
  1 23  1  0  0  0  0
  3  4  1  6  0  0  0
  3  8  1  0  0  0  0
  3 30  1  0  0  0  0
  5  9  1  0  0  0  0
  5 27  1  0  0  0  0
  5 31  1  6  0  0  0
  6  7  1  1  0  0  0
  6 11  1  0  0  0  0
  8 13  1  0  0  0  0
  9 10  1  1  0  0  0
  9 15  1  0  0  0  0
 11 12  1  6  0  0  0
 11 17  1  0  0  0  0
 13 14  1  6  0  0  0
 13 19  1  0  0  0  0
 15 16  1  1  0  0  0
 15 20  1  0  0  0  0
 16 34  1  0  0  0  0
 17 18  1  1  0  0  0
 17 22  1  0  0  0  0
 19  2  1  1  0  0  0
 19 24  1  0  0  0  0
 20 21  1  1  0  0  0
 20 26  1  0  0  0  0
 20 33  1  0  0  0  0
 22 23  1  6  0  0  0
 22 28  1  0  0  0  0
 24 25  1  6  0  0  0
 24 30  1  0  0  0  0
 26 27  1  0  0  0  0
 28 29  1  6  0  0  0
 28 32  1  0  0  0  0
 30 31  1  1  0  0  0
M  END
>  <CHROM.1>
-175.32781668,-157.16160715,-107.81400020,44.97042667,71.39542702,-170.39916477
19.99945780,29.10751014,36.90358275,2.13210486,0.37198798,-2.77208767

>  <Name>
ligand

>  <RI>
0

>  <Rbt.Current_Directory>
/home/itssahil/PROJECTS/Mol_Feturizer/New_Systems/rnas/4p3s

>  <Rbt.Executable>
rbdock ($Id: //depot/dev/client3/rdock/2013.1/src/exe/rbdock.cxx#4 $)

>  <Rbt.Library>
libRbt.so (2013.1, Build901 2013/11/27)

>  <Rbt.Parameter_File>
/export/apps/rDock/src/rDock_2013.1_src/data/scripts/dock_solv.prm

>  <Rbt.Receptor>
prm/pocket_docking_7.prm

>  <SCORE>
-15.6076

>  <SCORE.INTER>
-10.8563

>  <SCORE.INTER.CONST>
1

>  <SCORE.INTER.POLAR>
0

>  <SCORE.INTER.ROT>
6

>  <SCORE.INTER.SOLV>
17.1432

>  <SCORE.INTER.VDW>
-20.552

>  <SCORE.INTER.norm>
-0.319303

>  <SCORE.INTRA>
-4.75129

>  <SCORE.INTRA.DIHEDRAL>
-10.4155

>  <SCORE.INTRA.DIHEDRAL.0>
15.8194

>  <SCORE.INTRA.POLAR>
0

>  <SCORE.INTRA.POLAR.0>
0

>  <SCORE.INTRA.REPUL>
0

>  <SCORE.INTRA.REPUL.0>
0

>  <SCORE.INTRA.SOLV>
0.520816

>  <SCORE.INTRA.SOLV.lig_0>
-71.9159

>  <SCORE.INTRA.VDW>
0.196032

>  <SCORE.INTRA.VDW.0>
-3.53918

>  <SCORE.INTRA.norm>
-0.139744

>  <SCORE.RESTR>
0

>  <SCORE.RESTR.CAVITY>
0

>  <SCORE.RESTR.norm>
0

>  <SCORE.SYSTEM>
0

>  <SCORE.SYSTEM.CONST>
0

>  <SCORE.SYSTEM.DIHEDRAL>
0

>  <SCORE.SYSTEM.SOLV>
0

>  <SCORE.SYSTEM.norm>
0

>  <SCORE.heavy>
34

>  <SCORE.norm>
-0.459047

>  <RMSD>
1.519

$$$$
ligand
 OpenBabel01301917533D
libRbt.so/2013.1/901 2013/11/27
 34 36  0  0  0  0  0  0  0  0999 V2000
   19.1330   26.8285   33.9724 C   0  0  2  0  0  0  0  0  0  0  0  0
   19.2440   26.9124   35.3967 O   0  0  0  0  0  0  0  0  0  0  0  0
   22.2187   27.8453   38.3434 C   0  0  2  0  0  0  0  0  0  0  0  0
   23.4878   27.8939   39.0820 N   0  0  0  0  0  0  0  0  0  0  0  0
   23.9056   30.4736   36.4199 C   0  0  2  0  0  0  0  0  0  0  0  0
   17.6026   26.8416   33.6006 C   0  0  2  0  0  0  0  0  0  0  0  0
   16.9533   28.0672   34.0929 N   0  0  0  0  0  0  0  0  0  0  0  0
   21.8318   26.3339   38.1556 C   0  0  0  0  0  0  0  0  0  0  0  0
   24.8438   31.0177   37.5684 C   0  0  2  0  0  0  0  0  0  0  0  0
   25.2398   29.9590   38.4233 O   0  0  0  0  0  0  0  0  0  0  0  0
   16.8942   25.5857   34.1921 C   0  0  1  0  0  0  0  0  0  0  0  0
   15.4947   25.5937   33.8547 O   0  0  0  0  0  0  0  0  0  0  0  0
   20.4666   26.2835   37.3837 C   0  0  2  0  0  0  0  0  0  0  0  0
   20.0389   24.8725   37.1637 N   0  0  0  0  0  0  0  0  0  0  0  0
   24.0449   32.1058   38.3807 C   0  0  1  0  0  0  0  0  0  0  0  0
   24.8570   32.6308   39.4969 N   0  0  0  0  0  0  0  0  0  0  0  0
   17.6044   24.3238   33.6486 C   0  0  2  0  0  0  0  0  0  0  0  0
   16.9607   23.1573   34.1709 O   0  0  0  0  0  0  0  0  0  0  0  0
   20.5841   26.9943   36.0015 C   0  0  2  0  0  0  0  0  0  0  0  0
   23.6356   33.2626   37.4150 C   0  0  1  0  0  0  0  0  0  0  0  0
   24.8213   33.8577   36.8980 O   0  0  0  0  0  0  0  0  0  0  0  0
   19.1373   24.3807   34.0646 C   0  0  2  0  0  0  0  0  0  0  0  0
   19.7816   25.5984   33.5241 O   0  0  0  0  0  0  0  0  0  0  0  0
   21.0326   28.4647   36.2212 C   0  0  2  0  0  0  0  0  0  0  0  0
   21.1626   29.0820   34.9422 O   0  0  0  0  0  0  0  0  0  0  0  0
   22.7844   32.6682   36.2472 C   0  0  0  0  0  0  0  0  0  0  0  0
   23.5181   31.5924   35.5384 O   0  0  0  0  0  0  0  0  0  0  0  0
   19.9422   23.1498   33.5571 C   0  0  2  0  0  0  0  0  0  0  0  0
   19.6044   22.8967   32.1889 O   0  0  0  0  0  0  0  0  0  0  0  0
   22.4061   28.5483   36.9317 C   0  0  1  0  0  0  0  0  0  0  0  0
   22.7276   29.9544   37.1163 O   0  0  0  0  0  0  0  0  0  0  0  0
   19.6334   21.8989   34.3499 C   0  0  0  0  0  0  0  0  0  0  0  0
   22.8353   34.3541   38.1271 C   0  0  0  0  0  0  0  0  0  0  0  0
   24.2732   32.1068   40.7560 C   0  0  0  0  0  0  0  0  0  0  0  0
  1  2  1  1  0  0  0
  1  6  1  0  0  0  0
  1 23  1  0  0  0  0
  3  4  1  1  0  0  0
  3  8  1  0  0  0  0
  3 30  1  0  0  0  0
  5  9  1  0  0  0  0
  5 27  1  0  0  0  0
  5 31  1  1  0  0  0
  6  7  1  1  0  0  0
  6 11  1  0  0  0  0
  8 13  1  0  0  0  0
  9 10  1  1  0  0  0
  9 15  1  0  0  0  0
 11 12  1  6  0  0  0
 11 17  1  0  0  0  0
 13 14  1  6  0  0  0
 13 19  1  0  0  0  0
 15 16  1  1  0  0  0
 15 20  1  0  0  0  0
 16 34  1  0  0  0  0
 17 18  1  1  0  0  0
 17 22  1  0  0  0  0
 19  2  1  1  0  0  0
 19 24  1  0  0  0  0
 20 21  1  6  0  0  0
 20 26  1  0  0  0  0
 20 33  1  0  0  0  0
 22 23  1  6  0  0  0
 22 28  1  0  0  0  0
 24 25  1  6  0  0  0
 24 30  1  0  0  0  0
 26 27  1  0  0  0  0
 28 29  1  6  0  0  0
 28 32  1  0  0  0  0
 30 31  1  1  0  0  0
M  END
>  <CHROM.1>
-176.61042156,-148.57411893,-108.74281022,45.47697750,128.35682595,-120.79924007
21.13599322,28.10307368,36.07367935,2.39099735,0.70267293,3.02642224

>  <Name>
ligand

>  <RI>
0

>  <Rbt.Current_Directory>
/home/itssahil/PROJECTS/Mol_Feturizer/New_Systems/rnas/4p3s

>  <Rbt.Executable>
rbdock ($Id: //depot/dev/client3/rdock/2013.1/src/exe/rbdock.cxx#4 $)

>  <Rbt.Library>
libRbt.so (2013.1, Build901 2013/11/27)

>  <Rbt.Parameter_File>
/export/apps/rDock/src/rDock_2013.1_src/data/scripts/dock_solv.prm

>  <Rbt.Receptor>
prm/blind_docking_80.prm

>  <SCORE>
-7.19707

>  <SCORE.INTER>
-10.1043

>  <SCORE.INTER.CONST>
1

>  <SCORE.INTER.POLAR>
0

>  <SCORE.INTER.ROT>
6

>  <SCORE.INTER.SOLV>
27.1033

>  <SCORE.INTER.VDW>
-23.3707

>  <SCORE.INTER.norm>
-0.297185

>  <SCORE.INTRA>
2.47989

>  <SCORE.INTRA.DIHEDRAL>
3.90982

>  <SCORE.INTRA.DIHEDRAL.0>
15.8194

>  <SCORE.INTRA.POLAR>
0

>  <SCORE.INTRA.POLAR.0>
0

>  <SCORE.INTRA.REPUL>
0

>  <SCORE.INTRA.REPUL.0>
0

>  <SCORE.INTRA.SOLV>
2.18581

>  <SCORE.INTRA.SOLV.lig_0>
-71.9159

>  <SCORE.INTRA.VDW>
-0.567924

>  <SCORE.INTRA.VDW.0>
-3.53918

>  <SCORE.INTRA.norm>
0.072938

>  <SCORE.RESTR>
0.427343

>  <SCORE.RESTR.CAVITY>
0.427343

>  <SCORE.RESTR.norm>
0.0125689

>  <SCORE.SYSTEM>
0

>  <SCORE.SYSTEM.CONST>
0

>  <SCORE.SYSTEM.DIHEDRAL>
0

>  <SCORE.SYSTEM.SOLV>
0

>  <SCORE.SYSTEM.norm>
0

>  <SCORE.heavy>
34

>  <SCORE.norm>
-0.211679

>  <RMSD>
1.640

$$$$
ligand
 OpenBabel01301917533D
libRbt.so/2013.1/901 2013/11/27
 34 36  0  0  0  0  0  0  0  0999 V2000
   18.0493   27.7351   34.7938 C   0  0  2  0  0  0  0  0  0  0  0  0
   18.6459   27.0425   35.8949 O   0  0  0  0  0  0  0  0  0  0  0  0
   21.6459   28.4217   38.6336 C   0  0  2  0  0  0  0  0  0  0  0  0
   22.9454   28.7637   39.2276 N   0  0  0  0  0  0  0  0  0  0  0  0
   21.8934   31.7544   36.9268 C   0  0  2  0  0  0  0  0  0  0  0  0
   16.5278   27.9659   35.1292 C   0  0  2  0  0  0  0  0  0  0  0  0
   16.3758   28.7466   36.3675 N   0  0  0  0  0  0  0  0  0  0  0  0
   21.7028   26.9144   38.1932 C   0  0  0  0  0  0  0  0  0  0  0  0
   23.4250   31.7618   37.3134 C   0  0  2  0  0  0  0  0  0  0  0  0
   24.0094   30.5014   37.0336 O   0  0  0  0  0  0  0  0  0  0  0  0
   15.7931   26.5981   35.2650 C   0  0  1  0  0  0  0  0  0  0  0  0
   14.4018   26.8044   35.5718 O   0  0  0  0  0  0  0  0  0  0  0  0
   20.3080   26.5447   37.5766 C   0  0  2  0  0  0  0  0  0  0  0  0
   20.2913   25.1229   37.1290 N   0  0  0  0  0  0  0  0  0  0  0  0
   23.5418   32.0889   38.8502 C   0  0  1  0  0  0  0  0  0  0  0  0
   24.9529   32.0752   39.2854 N   0  0  0  0  0  0  0  0  0  0  0  0
   15.9756   25.8133   33.9449 C   0  0  2  0  0  0  0  0  0  0  0  0
   15.2971   24.5572   34.0441 O   0  0  0  0  0  0  0  0  0  0  0  0
   19.9803   27.4591   36.3576 C   0  0  2  0  0  0  0  0  0  0  0  0
   22.9022   33.4871   39.1227 C   0  0  1  0  0  0  0  0  0  0  0  0
   23.6323   34.4660   38.3906 O   0  0  0  0  0  0  0  0  0  0  0  0
   17.5299   25.6179   33.6767 C   0  0  2  0  0  0  0  0  0  0  0  0
   18.2144   26.9270   33.5879 O   0  0  0  0  0  0  0  0  0  0  0  0
   19.9988   28.9432   36.8143 C   0  0  2  0  0  0  0  0  0  0  0  0
   19.7277   29.7584   35.6761 O   0  0  0  0  0  0  0  0  0  0  0  0
   21.4147   33.4636   38.6450 C   0  0  0  0  0  0  0  0  0  0  0  0
   21.3129   33.0803   37.2165 O   0  0  0  0  0  0  0  0  0  0  0  0
   17.8180   24.8387   32.3613 C   0  0  2  0  0  0  0  0  0  0  0  0
   17.2125   23.5435   32.4381 O   0  0  0  0  0  0  0  0  0  0  0  0
   21.3815   29.3559   37.3768 C   0  0  1  0  0  0  0  0  0  0  0  0
   21.2941   30.7444   37.8002 O   0  0  0  0  0  0  0  0  0  0  0  0
   19.2996   24.6445   32.1251 C   0  0  0  0  0  0  0  0  0  0  0  0
   22.9584   33.8698   40.6023 C   0  0  0  0  0  0  0  0  0  0  0  0
   25.0901   31.0165   40.3156 C   0  0  0  0  0  0  0  0  0  0  0  0
  1  2  1  1  0  0  0
  1  6  1  0  0  0  0
  1 23  1  0  0  0  0
  3  4  1  6  0  0  0
  3  8  1  0  0  0  0
  3 30  1  0  0  0  0
  5  9  1  0  0  0  0
  5 27  1  0  0  0  0
  5 31  1  1  0  0  0
  6  7  1  1  0  0  0
  6 11  1  0  0  0  0
  8 13  1  0  0  0  0
  9 10  1  1  0  0  0
  9 15  1  0  0  0  0
 11 12  1  6  0  0  0
 11 17  1  0  0  0  0
 13 14  1  6  0  0  0
 13 19  1  0  0  0  0
 15 16  1  6  0  0  0
 15 20  1  0  0  0  0
 16 34  1  0  0  0  0
 17 18  1  1  0  0  0
 17 22  1  0  0  0  0
 19  2  1  1  0  0  0
 19 24  1  0  0  0  0
 20 21  1  6  0  0  0
 20 26  1  0  0  0  0
 20 33  1  0  0  0  0
 22 23  1  6  0  0  0
 22 28  1  0  0  0  0
 24 25  1  6  0  0  0
 24 30  1  0  0  0  0
 26 27  1  0  0  0  0
 28 29  1  1  0  0  0
 28 32  1  0  0  0  0
 30 31  1  1  0  0  0
M  END
>  <CHROM.1>
-137.86633606,178.27909479,-118.79120258,-59.79215854,141.48321009,-83.33662710
20.15131248,28.83759696,36.55666641,2.28315382,0.36600148,-2.82097210

>  <Name>
ligand

>  <RI>
0

>  <Rbt.Current_Directory>
/home/itssahil/PROJECTS/Mol_Feturizer/New_Systems/rnas/4p3s

>  <Rbt.Executable>
rbdock ($Id: //depot/dev/client3/rdock/2013.1/src/exe/rbdock.cxx#4 $)

>  <Rbt.Library>
libRbt.so (2013.1, Build901 2013/11/27)

>  <Rbt.Parameter_File>
/export/apps/rDock/src/rDock_2013.1_src/data/scripts/dock_solv.prm

>  <Rbt.Receptor>
prm/pocket_docking_5.prm

>  <SCORE>
-12.1437

>  <SCORE.INTER>
-12.85

>  <SCORE.INTER.CONST>
1

>  <SCORE.INTER.POLAR>
0

>  <SCORE.INTER.ROT>
6

>  <SCORE.INTER.SOLV>
19.6411

>  <SCORE.INTER.VDW>
-22.7137

>  <SCORE.INTER.norm>
-0.377942

>  <SCORE.INTRA>
0.706299

>  <SCORE.INTRA.DIHEDRAL>
-1.35033

>  <SCORE.INTRA.DIHEDRAL.0>
15.8194

>  <SCORE.INTRA.POLAR>
0

>  <SCORE.INTRA.POLAR.0>
0

>  <SCORE.INTRA.REPUL>
0

>  <SCORE.INTRA.REPUL.0>
0

>  <SCORE.INTRA.SOLV>
2.57788

>  <SCORE.INTRA.SOLV.lig_0>
-71.9159

>  <SCORE.INTRA.VDW>
0.0925252

>  <SCORE.INTRA.VDW.0>
-3.53918

>  <SCORE.INTRA.norm>
0.0207735

>  <SCORE.RESTR>
0

>  <SCORE.RESTR.CAVITY>
0

>  <SCORE.RESTR.norm>
0

>  <SCORE.SYSTEM>
0

>  <SCORE.SYSTEM.CONST>
0

>  <SCORE.SYSTEM.DIHEDRAL>
0

>  <SCORE.SYSTEM.SOLV>
0

>  <SCORE.SYSTEM.norm>
0

>  <SCORE.heavy>
34

>  <SCORE.norm>
-0.357169

>  <RMSD>
1.644

$$$$
ligand
 OpenBabel01301917533D
libRbt.so/2013.1/901 2013/11/27
 34 36  0  0  0  0  0  0  0  0999 V2000
   17.8144   28.0392   34.8758 C   0  0  2  0  0  0  0  0  0  0  0  0
   18.4351   27.4180   36.0058 O   0  0  0  0  0  0  0  0  0  0  0  0
   21.9514   28.2274   38.3259 C   0  0  2  0  0  0  0  0  0  0  0  0
   23.3550   28.4101   38.7197 N   0  0  0  0  0  0  0  0  0  0  0  0
   21.1993   31.8056   37.0853 C   0  0  2  0  0  0  0  0  0  0  0  0
   16.2824   28.2155   35.1963 C   0  0  2  0  0  0  0  0  0  0  0  0
   16.0896   29.0373   36.4018 N   0  0  0  0  0  0  0  0  0  0  0  0
   21.8153   26.7975   37.6888 C   0  0  0  0  0  0  0  0  0  0  0  0
   22.5293   32.4661   36.5466 C   0  0  2  0  0  0  0  0  0  0  0  0
   23.2225   31.5608   35.7048 O   0  0  0  0  0  0  0  0  0  0  0  0
   15.6081   26.8230   35.3840 C   0  0  1  0  0  0  0  0  0  0  0  0
   14.2074   26.9795   35.6773 O   0  0  0  0  0  0  0  0  0  0  0  0
   20.3121   26.5959   37.2863 C   0  0  2  0  0  0  0  0  0  0  0  0
   20.1090   25.2554   36.6664 N   0  0  0  0  0  0  0  0  0  0  0  0
   23.4223   32.8527   37.7857 C   0  0  1  0  0  0  0  0  0  0  0  0
   24.7023   33.4446   37.3476 N   0  0  0  0  0  0  0  0  0  0  0  0
   15.8320   25.9952   34.0969 C   0  0  2  0  0  0  0  0  0  0  0  0
   15.2091   24.7152   34.2438 O   0  0  0  0  0  0  0  0  0  0  0  0
   19.8568   27.6912   36.2751 C   0  0  2  0  0  0  0  0  0  0  0  0
   22.6368   33.8596   38.6843 C   0  0  1  0  0  0  0  0  0  0  0  0
   22.3783   35.0348   37.9231 O   0  0  0  0  0  0  0  0  0  0  0  0
   17.3949   25.8584   33.8422 C   0  0  2  0  0  0  0  0  0  0  0  0
   18.0214   27.1920   33.7037 O   0  0  0  0  0  0  0  0  0  0  0  0
   20.0680   29.0918   36.9117 C   0  0  2  0  0  0  0  0  0  0  0  0
   19.6741   30.0745   35.9562 O   0  0  0  0  0  0  0  0  0  0  0  0
   21.2893   33.2007   39.1221 C   0  0  0  0  0  0  0  0  0  0  0  0
   20.4919   32.7722   37.9480 O   0  0  0  0  0  0  0  0  0  0  0  0
   17.7240   25.0411   32.5601 C   0  0  2  0  0  0  0  0  0  0  0  0
   17.1946   23.7176   32.6954 O   0  0  0  0  0  0  0  0  0  0  0  0
   21.5535   29.3443   37.2692 C   0  0  1  0  0  0  0  0  0  0  0  0
   21.6475   30.6609   37.8795 O   0  0  0  0  0  0  0  0  0  0  0  0
   19.2137   24.9226   32.3248 C   0  0  0  0  0  0  0  0  0  0  0  0
   23.4324   34.2697   39.9243 C   0  0  0  0  0  0  0  0  0  0  0  0
   24.3865   34.5043   36.3585 C   0  0  0  0  0  0  0  0  0  0  0  0
  1  2  1  1  0  0  0
  1  6  1  0  0  0  0
  1 23  1  0  0  0  0
  3  4  1  6  0  0  0
  3  8  1  0  0  0  0
  3 30  1  0  0  0  0
  5  9  1  0  0  0  0
  5 27  1  0  0  0  0
  5 31  1  1  0  0  0
  6  7  1  1  0  0  0
  6 11  1  0  0  0  0
  8 13  1  0  0  0  0
  9 10  1  6  0  0  0
  9 15  1  0  0  0  0
 11 12  1  6  0  0  0
 11 17  1  0  0  0  0
 13 14  1  6  0  0  0
 13 19  1  0  0  0  0
 15 16  1  6  0  0  0
 15 20  1  0  0  0  0
 16 34  1  0  0  0  0
 17 18  1  1  0  0  0
 17 22  1  0  0  0  0
 19  2  1  1  0  0  0
 19 24  1  0  0  0  0
 20 21  1  6  0  0  0
 20 26  1  0  0  0  0
 20 33  1  0  0  0  0
 22 23  1  6  0  0  0
 22 28  1  0  0  0  0
 24 25  1  6  0  0  0
 24 30  1  0  0  0  0
 26 27  1  0  0  0  0
 28 29  1  1  0  0  0
 28 32  1  0  0  0  0
 30 31  1  1  0  0  0
M  END
>  <CHROM.1>
-151.46449234,-164.74641426,49.70838371,-60.71858964,-174.60279659,-101.60886506
19.95499389,29.18123832,36.28402227,2.22464732,0.19201856,-2.82238625

>  <Name>
ligand

>  <RI>
0

>  <Rbt.Current_Directory>
/home/itssahil/PROJECTS/Mol_Feturizer/New_Systems/rnas/4p3s

>  <Rbt.Executable>
rbdock ($Id: //depot/dev/client3/rdock/2013.1/src/exe/rbdock.cxx#4 $)

>  <Rbt.Library>
libRbt.so (2013.1, Build901 2013/11/27)

>  <Rbt.Parameter_File>
/export/apps/rDock/src/rDock_2013.1_src/data/scripts/dock_solv.prm

>  <Rbt.Receptor>
prm/pocket_docking_2.prm

>  <SCORE>
-3.97095

>  <SCORE.INTER>
-11.3493

>  <SCORE.INTER.CONST>
1

>  <SCORE.INTER.POLAR>
0

>  <SCORE.INTER.ROT>
6

>  <SCORE.INTER.SOLV>
20.2784

>  <SCORE.INTER.VDW>
-21.9257

>  <SCORE.INTER.norm>
-0.333804

>  <SCORE.INTRA>
5.96098

>  <SCORE.INTRA.DIHEDRAL>
-5.45066

>  <SCORE.INTRA.DIHEDRAL.0>
15.8194

>  <SCORE.INTRA.POLAR>
0

>  <SCORE.INTRA.POLAR.0>
0

>  <SCORE.INTRA.REPUL>
0

>  <SCORE.INTRA.REPUL.0>
0

>  <SCORE.INTRA.SOLV>
-0.513378

>  <SCORE.INTRA.SOLV.lig_0>
-71.9159

>  <SCORE.INTRA.VDW>
8.943

>  <SCORE.INTRA.VDW.0>
-3.53918

>  <SCORE.INTRA.norm>
0.175323

>  <SCORE.RESTR>
1.41742

>  <SCORE.RESTR.CAVITY>
1.41742

>  <SCORE.RESTR.norm>
0.0416889

>  <SCORE.SYSTEM>
0

>  <SCORE.SYSTEM.CONST>
0

>  <SCORE.SYSTEM.DIHEDRAL>
0

>  <SCORE.SYSTEM.SOLV>
0

>  <SCORE.SYSTEM.norm>
0

>  <SCORE.heavy>
34

>  <SCORE.norm>
-0.116793

>  <RMSD>
1.786

$$$$
ligand
 OpenBabel01301917533D
libRbt.so/2013.1/901 2013/11/27
 34 36  0  0  0  0  0  0  0  0999 V2000
   18.3689   27.8498   34.4499 C   0  0  2  0  0  0  0  0  0  0  0  0
   18.8798   27.3769   35.7003 O   0  0  0  0  0  0  0  0  0  0  0  0
   22.3615   28.7511   37.7959 C   0  0  2  0  0  0  0  0  0  0  0  0
   23.7526   28.9139   38.2397 N   0  0  0  0  0  0  0  0  0  0  0  0
   21.4548   31.5953   36.4848 C   0  0  2  0  0  0  0  0  0  0  0  0
   16.8049   27.9826   34.5807 C   0  0  2  0  0  0  0  0  0  0  0  0
   16.4459   28.9116   35.6642 N   0  0  0  0  0  0  0  0  0  0  0  0
   21.9960   27.2275   37.9162 C   0  0  0  0  0  0  0  0  0  0  0  0
   22.1052   33.0228   36.2985 C   0  0  2  0  0  0  0  0  0  0  0  0
   22.5268   33.2003   34.9571 O   0  0  0  0  0  0  0  0  0  0  0  0
   16.1658   26.5850   34.8399 C   0  0  1  0  0  0  0  0  0  0  0  0
   14.7361   26.7019   34.9604 O   0  0  0  0  0  0  0  0  0  0  0  0
   20.5041   27.0577   37.4604 C   0  0  2  0  0  0  0  0  0  0  0  0
   20.0886   25.6284   37.5433 N   0  0  0  0  0  0  0  0  0  0  0  0
   23.3353   33.1333   37.2768 C   0  0  1  0  0  0  0  0  0  0  0  0
   24.0126   34.4368   37.1253 N   0  0  0  0  0  0  0  0  0  0  0  0
   16.5652   25.6433   33.6799 C   0  0  2  0  0  0  0  0  0  0  0  0
   15.9776   24.3559   33.8925 O   0  0  0  0  0  0  0  0  0  0  0  0
   20.3118   27.5527   35.9950 C   0  0  2  0  0  0  0  0  0  0  0  0
   22.8361   32.9471   38.7445 C   0  0  1  0  0  0  0  0  0  0  0  0
   21.9188   33.9942   39.0439 O   0  0  0  0  0  0  0  0  0  0  0  0
   18.1508   25.5578   33.6133 C   0  0  2  0  0  0  0  0  0  0  0  0
   18.7391   26.8995   33.4036 O   0  0  0  0  0  0  0  0  0  0  0  0
   20.7455   29.0406   35.8988 C   0  0  2  0  0  0  0  0  0  0  0  0
   20.5897   29.4588   34.5443 O   0  0  0  0  0  0  0  0  0  0  0  0
   22.1218   31.5625   38.8632 C   0  0  0  0  0  0  0  0  0  0  0  0
   21.0142   31.4413   37.8851 O   0  0  0  0  0  0  0  0  0  0  0  0
   18.6537   24.6322   32.4685 C   0  0  2  0  0  0  0  0  0  0  0  0
   17.8999   23.4149   32.4805 O   0  0  0  0  0  0  0  0  0  0  0  0
   22.2317   29.2341   36.2886 C   0  0  1  0  0  0  0  0  0  0  0  0
   22.5363   30.6529   36.1941 O   0  0  0  0  0  0  0  0  0  0  0  0
   20.1153   24.2739   32.6238 C   0  0  0  0  0  0  0  0  0  0  0  0
   23.9793   33.0215   39.7576 C   0  0  0  0  0  0  0  0  0  0  0  0
   22.9610   35.4826   37.0892 C   0  0  0  0  0  0  0  0  0  0  0  0
  1  2  1  1  0  0  0
  1  6  1  0  0  0  0
  1 23  1  0  0  0  0
  3  4  1  6  0  0  0
  3  8  1  0  0  0  0
  3 30  1  0  0  0  0
  5  9  1  0  0  0  0
  5 27  1  0  0  0  0
  5 31  1  1  0  0  0
  6  7  1  1  0  0  0
  6 11  1  0  0  0  0
  8 13  1  0  0  0  0
  9 10  1  6  0  0  0
  9 15  1  0  0  0  0
 11 12  1  6  0  0  0
 11 17  1  0  0  0  0
 13 14  1  6  0  0  0
 13 19  1  0  0  0  0
 15 16  1  1  0  0  0
 15 20  1  0  0  0  0
 16 34  1  0  0  0  0
 17 18  1  1  0  0  0
 17 22  1  0  0  0  0
 19  2  1  1  0  0  0
 19 24  1  0  0  0  0
 20 21  1  1  0  0  0
 20 26  1  0  0  0  0
 20 33  1  0  0  0  0
 22 23  1  6  0  0  0
 22 28  1  0  0  0  0
 24 25  1  6  0  0  0
 24 30  1  0  0  0  0
 26 27  1  0  0  0  0
 28 29  1  1  0  0  0
 28 32  1  0  0  0  0
 30 31  1  1  0  0  0
M  END
>  <CHROM.1>
-161.43352745,174.96493293,45.40918557,-45.85408993,-83.84684707,179.87784221
20.30209629,29.04742631,35.97046797,2.23052476,0.48294068,-3.01176201

>  <Name>
ligand

>  <RI>
0

>  <Rbt.Current_Directory>
/home/itssahil/PROJECTS/Mol_Feturizer/New_Systems/rnas/4p3s

>  <Rbt.Executable>
rbdock ($Id: //depot/dev/client3/rdock/2013.1/src/exe/rbdock.cxx#4 $)

>  <Rbt.Library>
libRbt.so (2013.1, Build901 2013/11/27)

>  <Rbt.Parameter_File>
/export/apps/rDock/src/rDock_2013.1_src/data/scripts/dock_solv.prm

>  <Rbt.Receptor>
prm/pocket_docking_2.prm

>  <SCORE>
-5.92737

>  <SCORE.INTER>
-10.8838

>  <SCORE.INTER.CONST>
1

>  <SCORE.INTER.POLAR>
0

>  <SCORE.INTER.ROT>
6

>  <SCORE.INTER.SOLV>
19.7936

>  <SCORE.INTER.VDW>
-21.4538

>  <SCORE.INTER.norm>
-0.320113

>  <SCORE.INTRA>
4.5493

>  <SCORE.INTRA.DIHEDRAL>
-10.7012

>  <SCORE.INTRA.DIHEDRAL.0>
15.8194

>  <SCORE.INTRA.POLAR>
0

>  <SCORE.INTRA.POLAR.0>
0

>  <SCORE.INTRA.REPUL>
0

>  <SCORE.INTRA.REPUL.0>
0

>  <SCORE.INTRA.SOLV>
0.442914

>  <SCORE.INTRA.SOLV.lig_0>
-71.9159

>  <SCORE.INTRA.VDW>
9.67846

>  <SCORE.INTRA.VDW.0>
-3.53918

>  <SCORE.INTRA.norm>
0.133803

>  <SCORE.RESTR>
0.407165

>  <SCORE.RESTR.CAVITY>
0.407165

>  <SCORE.RESTR.norm>
0.0119754

>  <SCORE.SYSTEM>
0

>  <SCORE.SYSTEM.CONST>
0

>  <SCORE.SYSTEM.DIHEDRAL>
0

>  <SCORE.SYSTEM.SOLV>
0

>  <SCORE.SYSTEM.norm>
0

>  <SCORE.heavy>
34

>  <SCORE.norm>
-0.174334

>  <RMSD>
1.843

$$$$
ligand
 OpenBabel01301917533D
libRbt.so/2013.1/901 2013/11/27
 34 36  0  0  0  0  0  0  0  0999 V2000
   18.0050   27.8988   35.0357 C   0  0  2  0  0  0  0  0  0  0  0  0
   18.5288   27.3628   36.2549 O   0  0  0  0  0  0  0  0  0  0  0  0
   19.3142   31.0342   38.3298 C   0  0  2  0  0  0  0  0  0  0  0  0
   19.8205   32.0065   39.3081 N   0  0  0  0  0  0  0  0  0  0  0  0
   22.5594   31.2599   36.3071 C   0  0  2  0  0  0  0  0  0  0  0  0
   16.4403   28.0046   35.1816 C   0  0  2  0  0  0  0  0  0  0  0  0
   16.0762   28.8667   36.3175 N   0  0  0  0  0  0  0  0  0  0  0  0
   18.5799   29.8943   39.1239 C   0  0  0  0  0  0  0  0  0  0  0  0
   23.4402   31.5298   37.5904 C   0  0  2  0  0  0  0  0  0  0  0  0
   23.1157   30.6045   38.6136 O   0  0  0  0  0  0  0  0  0  0  0  0
   15.8198   26.5868   35.3650 C   0  0  1  0  0  0  0  0  0  0  0  0
   14.3894   26.6788   35.4990 O   0  0  0  0  0  0  0  0  0  0  0  0
   18.0229   28.8666   38.0772 C   0  0  2  0  0  0  0  0  0  0  0  0
   17.3152   27.7484   38.7636 N   0  0  0  0  0  0  0  0  0  0  0  0
   23.1608   33.0021   38.0767 C   0  0  1  0  0  0  0  0  0  0  0  0
   23.9297   33.3071   39.3001 N   0  0  0  0  0  0  0  0  0  0  0  0
   16.2239   25.7168   34.1517 C   0  0  2  0  0  0  0  0  0  0  0  0
   15.6533   24.4122   34.2945 O   0  0  0  0  0  0  0  0  0  0  0  0
   19.1766   28.2752   37.2120 C   0  0  2  0  0  0  0  0  0  0  0  0
   23.5405   33.9960   36.9338 C   0  0  1  0  0  0  0  0  0  0  0  0
   24.9320   33.8604   36.6638 O   0  0  0  0  0  0  0  0  0  0  0  0
   17.8101   25.6550   34.0725 C   0  0  2  0  0  0  0  0  0  0  0  0
   18.3808   27.0136   33.9358 O   0  0  0  0  0  0  0  0  0  0  0  0
   19.9217   29.4341   36.4954 C   0  0  2  0  0  0  0  0  0  0  0  0
   20.9896   28.8698   35.7373 O   0  0  0  0  0  0  0  0  0  0  0  0
   22.7124   33.6385   35.6579 C   0  0  0  0  0  0  0  0  0  0  0  0
   22.9252   32.2278   35.2545 O   0  0  0  0  0  0  0  0  0  0  0  0
   18.3177   24.8015   32.8749 C   0  0  2  0  0  0  0  0  0  0  0  0
   17.7426   23.4925   32.9513 O   0  0  0  0  0  0  0  0  0  0  0  0
   20.5328   30.4374   37.5045 C   0  0  1  0  0  0  0  0  0  0  0  0
   21.1825   31.4936   36.7450 O   0  0  0  0  0  0  0  0  0  0  0  0
   19.8227   24.6477   32.8802 C   0  0  0  0  0  0  0  0  0  0  0  0
   23.2780   35.4516   37.3228 C   0  0  0  0  0  0  0  0  0  0  0  0
   22.9629   33.7531   40.3331 C   0  0  0  0  0  0  0  0  0  0  0  0
  1  2  1  1  0  0  0
  1  6  1  0  0  0  0
  1 23  1  0  0  0  0
  3  4  1  1  0  0  0
  3  8  1  0  0  0  0
  3 30  1  0  0  0  0
  5  9  1  0  0  0  0
  5 27  1  0  0  0  0
  5 31  1  1  0  0  0
  6  7  1  1  0  0  0
  6 11  1  0  0  0  0
  8 13  1  0  0  0  0
  9 10  1  1  0  0  0
  9 15  1  0  0  0  0
 11 12  1  6  0  0  0
 11 17  1  0  0  0  0
 13 14  1  1  0  0  0
 13 19  1  0  0  0  0
 15 16  1  1  0  0  0
 15 20  1  0  0  0  0
 16 34  1  0  0  0  0
 17 18  1  1  0  0  0
 17 22  1  0  0  0  0
 19  2  1  6  0  0  0
 19 24  1  0  0  0  0
 20 21  1  6  0  0  0
 20 26  1  0  0  0  0
 20 33  1  0  0  0  0
 22 23  1  6  0  0  0
 22 28  1  0  0  0  0
 24 25  1  1  0  0  0
 24 30  1  0  0  0  0
 26 27  1  0  0  0  0
 28 29  1  1  0  0  0
 28 32  1  0  0  0  0
 30 31  1  6  0  0  0
M  END
>  <CHROM.1>
-102.88205156,85.19789021,-124.48646058,-55.38813004,159.23027926,-78.70595981
19.85665390,29.44348419,36.39070653,-2.33484228,0.50037493,0.84809744

>  <Name>
ligand

>  <RI>
0

>  <Rbt.Current_Directory>
/home/itssahil/PROJECTS/Mol_Feturizer/New_Systems/rnas/4p3s

>  <Rbt.Executable>
rbdock ($Id: //depot/dev/client3/rdock/2013.1/src/exe/rbdock.cxx#4 $)

>  <Rbt.Library>
libRbt.so (2013.1, Build901 2013/11/27)

>  <Rbt.Parameter_File>
/export/apps/rDock/src/rDock_2013.1_src/data/scripts/dock_solv.prm

>  <Rbt.Receptor>
prm/pocket_docking_4.prm

>  <SCORE>
-9.15154

>  <SCORE.INTER>
-12.2416

>  <SCORE.INTER.CONST>
1

>  <SCORE.INTER.POLAR>
0

>  <SCORE.INTER.ROT>
6

>  <SCORE.INTER.SOLV>
13.0341

>  <SCORE.INTER.VDW>
-20.1058

>  <SCORE.INTER.norm>
-0.360047

>  <SCORE.INTRA>
3.09004

>  <SCORE.INTRA.DIHEDRAL>
-2.41759

>  <SCORE.INTRA.DIHEDRAL.0>
15.8194

>  <SCORE.INTRA.POLAR>
0

>  <SCORE.INTRA.POLAR.0>
0

>  <SCORE.INTRA.REPUL>
0

>  <SCORE.INTRA.REPUL.0>
0

>  <SCORE.INTRA.SOLV>
5.33486

>  <SCORE.INTRA.SOLV.lig_0>
-71.9159

>  <SCORE.INTRA.VDW>
1.63141

>  <SCORE.INTRA.VDW.0>
-3.53918

>  <SCORE.INTRA.norm>
0.0908836

>  <SCORE.RESTR>
0

>  <SCORE.RESTR.CAVITY>
0

>  <SCORE.RESTR.norm>
0

>  <SCORE.SYSTEM>
0

>  <SCORE.SYSTEM.CONST>
0

>  <SCORE.SYSTEM.DIHEDRAL>
0

>  <SCORE.SYSTEM.SOLV>
0

>  <SCORE.SYSTEM.norm>
0

>  <SCORE.heavy>
34

>  <SCORE.norm>
-0.269163

>  <RMSD>
1.997

$$$$
ligand
 OpenBabel01301917533D
libRbt.so/2013.1/901 2013/11/27
 34 36  0  0  0  0  0  0  0  0999 V2000
   18.1154   27.4696   34.6016 C   0  0  2  0  0  0  0  0  0  0  0  0
   18.7429   27.0518   35.8181 O   0  0  0  0  0  0  0  0  0  0  0  0
   22.1832   28.6837   37.7936 C   0  0  2  0  0  0  0  0  0  0  0  0
   23.5744   28.9825   38.1598 N   0  0  0  0  0  0  0  0  0  0  0  0
   20.9019   31.4801   36.8913 C   0  0  2  0  0  0  0  0  0  0  0  0
   16.5789   27.1394   34.7066 C   0  0  2  0  0  0  0  0  0  0  0  0
   15.9719   27.8269   35.8577 N   0  0  0  0  0  0  0  0  0  0  0  0
   22.0083   27.1222   37.8117 C   0  0  0  0  0  0  0  0  0  0  0  0
   21.3215   32.9889   36.6842 C   0  0  2  0  0  0  0  0  0  0  0  0
   21.4539   33.2778   35.3030 O   0  0  0  0  0  0  0  0  0  0  0  0
   16.3663   25.6003   34.8291 C   0  0  1  0  0  0  0  0  0  0  0  0
   14.9630   25.2940   34.9256 O   0  0  0  0  0  0  0  0  0  0  0  0
   20.5174   26.8051   37.4394 C   0  0  2  0  0  0  0  0  0  0  0  0
   20.2792   25.3335   37.4312 N   0  0  0  0  0  0  0  0  0  0  0  0
   22.6921   33.2234   37.4250 C   0  0  1  0  0  0  0  0  0  0  0  0
   23.1602   34.6116   37.2388 N   0  0  0  0  0  0  0  0  0  0  0  0
   17.0154   24.9191   33.6017 C   0  0  2  0  0  0  0  0  0  0  0  0
   16.8206   23.5040   33.6884 O   0  0  0  0  0  0  0  0  0  0  0  0
   20.1620   27.3793   36.0346 C   0  0  2  0  0  0  0  0  0  0  0  0
   22.5094   32.9102   38.9438 C   0  0  1  0  0  0  0  0  0  0  0  0
   21.5428   33.8104   39.4756 O   0  0  0  0  0  0  0  0  0  0  0  0
   18.5593   25.2949   33.5652 C   0  0  2  0  0  0  0  0  0  0  0  0
   18.7393   26.7617   33.4861 O   0  0  0  0  0  0  0  0  0  0  0  0
   20.4104   28.9122   36.0331 C   0  0  2  0  0  0  0  0  0  0  0  0
   20.1084   29.4067   34.7300 O   0  0  0  0  0  0  0  0  0  0  0  0
   22.0093   31.4381   39.0992 C   0  0  0  0  0  0  0  0  0  0  0  0
   20.7593   31.2096   38.3354 O   0  0  0  0  0  0  0  0  0  0  0  0
   19.3031   24.6571   32.3568 C   0  0  2  0  0  0  0  0  0  0  0  0
   18.5160   24.8305   31.1734 O   0  0  0  0  0  0  0  0  0  0  0  0
   21.8883   29.2569   36.3421 C   0  0  1  0  0  0  0  0  0  0  0  0
   22.0169   30.7054   36.3450 O   0  0  0  0  0  0  0  0  0  0  0  0
   19.5346   23.1742   32.5465 C   0  0  0  0  0  0  0  0  0  0  0  0
   23.8066   33.0957   39.7323 C   0  0  0  0  0  0  0  0  0  0  0  0
   24.4268   34.5540   36.4686 C   0  0  0  0  0  0  0  0  0  0  0  0
  1  2  1  1  0  0  0
  1  6  1  0  0  0  0
  1 23  1  0  0  0  0
  3  4  1  6  0  0  0
  3  8  1  0  0  0  0
  3 30  1  0  0  0  0
  5  9  1  0  0  0  0
  5 27  1  0  0  0  0
  5 31  1  1  0  0  0
  6  7  1  1  0  0  0
  6 11  1  0  0  0  0
  8 13  1  0  0  0  0
  9 10  1  6  0  0  0
  9 15  1  0  0  0  0
 11 12  1  6  0  0  0
 11 17  1  0  0  0  0
 13 14  1  6  0  0  0
 13 19  1  0  0  0  0
 15 16  1  1  0  0  0
 15 20  1  0  0  0  0
 16 34  1  0  0  0  0
 17 18  1  1  0  0  0
 17 22  1  0  0  0  0
 19  2  1  1  0  0  0
 19 24  1  0  0  0  0
 20 21  1  1  0  0  0
 20 26  1  0  0  0  0
 20 33  1  0  0  0  0
 22 23  1  6  0  0  0
 22 28  1  0  0  0  0
 24 25  1  6  0  0  0
 24 30  1  0  0  0  0
 26 27  1  0  0  0  0
 28 29  1  6  0  0  0
 28 32  1  0  0  0  0
 30 31  1  1  0  0  0
M  END
>  <CHROM.1>
-173.55998128,179.28545565,-115.66455158,45.24984402,-78.53715261,-177.32063700
20.18996645,28.78863221,35.99890714,2.25285995,0.67750550,-3.12501539

>  <Name>
ligand

>  <RI>
0

>  <Rbt.Current_Directory>
/home/itssahil/PROJECTS/Mol_Feturizer/New_Systems/rnas/4p3s

>  <Rbt.Executable>
rbdock ($Id: //depot/dev/client3/rdock/2013.1/src/exe/rbdock.cxx#4 $)

>  <Rbt.Library>
libRbt.so (2013.1, Build901 2013/11/27)

>  <Rbt.Parameter_File>
/export/apps/rDock/src/rDock_2013.1_src/data/scripts/dock_solv.prm

>  <Rbt.Receptor>
prm/pocket_docking_2.prm

>  <SCORE>
-13.0978

>  <SCORE.INTER>
-10.2653

>  <SCORE.INTER.CONST>
1

>  <SCORE.INTER.POLAR>
0

>  <SCORE.INTER.ROT>
6

>  <SCORE.INTER.SOLV>
18.8113

>  <SCORE.INTER.VDW>
-20.714

>  <SCORE.INTER.norm>
-0.30192

>  <SCORE.INTRA>
-3.48035

>  <SCORE.INTRA.DIHEDRAL>
-12.0008

>  <SCORE.INTRA.DIHEDRAL.0>
15.8194

>  <SCORE.INTRA.POLAR>
0

>  <SCORE.INTRA.POLAR.0>
0

>  <SCORE.INTRA.REPUL>
0

>  <SCORE.INTRA.REPUL.0>
0

>  <SCORE.INTRA.SOLV>
0.336755

>  <SCORE.INTRA.SOLV.lig_0>
-71.9159

>  <SCORE.INTRA.VDW>
2.35168

>  <SCORE.INTRA.VDW.0>
-3.53918

>  <SCORE.INTRA.norm>
-0.102363

>  <SCORE.RESTR>
0.647805

>  <SCORE.RESTR.CAVITY>
0.647805

>  <SCORE.RESTR.norm>
0.0190531

>  <SCORE.SYSTEM>
0

>  <SCORE.SYSTEM.CONST>
0

>  <SCORE.SYSTEM.DIHEDRAL>
0

>  <SCORE.SYSTEM.SOLV>
0

>  <SCORE.SYSTEM.norm>
0

>  <SCORE.heavy>
34

>  <SCORE.norm>
-0.38523

>  <RMSD>
2.100

$$$$
ligand
 OpenBabel01301917533D
libRbt.so/2013.1/901 2013/11/27
 34 36  0  0  0  0  0  0  0  0999 V2000
   18.1354   28.3785   34.6358 C   0  0  2  0  0  0  0  0  0  0  0  0
   18.7366   28.1945   35.9214 O   0  0  0  0  0  0  0  0  0  0  0  0
   22.2075   29.8803   37.7958 C   0  0  2  0  0  0  0  0  0  0  0  0
   23.6039   30.1988   38.1230 N   0  0  0  0  0  0  0  0  0  0  0  0
   23.0871   32.4807   35.5938 C   0  0  2  0  0  0  0  0  0  0  0  0
   16.5723   28.2997   34.8124 C   0  0  2  0  0  0  0  0  0  0  0  0
   16.0975   29.3290   35.7511 N   0  0  0  0  0  0  0  0  0  0  0  0
   22.0535   28.3168   37.8258 C   0  0  0  0  0  0  0  0  0  0  0  0
   22.9453   34.0375   35.8211 C   0  0  2  0  0  0  0  0  0  0  0  0
   23.0958   34.3500   37.1952 O   0  0  0  0  0  0  0  0  0  0  0  0
   16.1581   26.8840   35.3156 C   0  0  1  0  0  0  0  0  0  0  0  0
   14.7298   26.8076   35.4786 O   0  0  0  0  0  0  0  0  0  0  0  0
   20.5573   27.9786   37.4953 C   0  0  2  0  0  0  0  0  0  0  0  0
   20.3381   26.5040   37.5003 N   0  0  0  0  0  0  0  0  0  0  0  0
   21.5211   34.4801   35.3132 C   0  0  1  0  0  0  0  0  0  0  0  0
   21.3101   35.9253   35.5318 N   0  0  0  0  0  0  0  0  0  0  0  0
   16.6731   25.8359   34.3016 C   0  0  2  0  0  0  0  0  0  0  0  0
   16.2922   24.5278   34.7393 O   0  0  0  0  0  0  0  0  0  0  0  0
   20.1567   28.5414   36.0980 C   0  0  2  0  0  0  0  0  0  0  0  0
   21.3924   34.1351   33.7958 C   0  0  1  0  0  0  0  0  0  0  0  0
   22.3808   34.8704   33.0819 O   0  0  0  0  0  0  0  0  0  0  0  0
   18.2517   25.9745   34.1800 C   0  0  2  0  0  0  0  0  0  0  0  0
   18.6251   27.3362   33.7367 O   0  0  0  0  0  0  0  0  0  0  0  0
   20.3850   30.0773   36.0828 C   0  0  2  0  0  0  0  0  0  0  0  0
   20.0415   30.5615   34.7861 O   0  0  0  0  0  0  0  0  0  0  0  0
   21.6268   32.6021   33.6049 C   0  0  0  0  0  0  0  0  0  0  0  0
   22.9385   32.1844   34.1554 O   0  0  0  0  0  0  0  0  0  0  0  0
   18.8669   24.9598   33.1740 C   0  0  2  0  0  0  0  0  0  0  0  0
   20.2951   25.0272   33.2498 O   0  0  0  0  0  0  0  0  0  0  0  0
   21.8660   30.4426   36.3503 C   0  0  1  0  0  0  0  0  0  0  0  0
   21.9758   31.8926   36.3430 O   0  0  0  0  0  0  0  0  0  0  0  0
   18.4640   25.2553   31.7461 C   0  0  0  0  0  0  0  0  0  0  0  0
   20.0239   34.5176   33.2302 C   0  0  0  0  0  0  0  0  0  0  0  0
   20.4334   36.0718   36.7195 C   0  0  0  0  0  0  0  0  0  0  0  0
  1  2  1  1  0  0  0
  1  6  1  0  0  0  0
  1 23  1  0  0  0  0
  3  4  1  6  0  0  0
  3  8  1  0  0  0  0
  3 30  1  0  0  0  0
  5  9  1  0  0  0  0
  5 27  1  0  0  0  0
  5 31  1  1  0  0  0
  6  7  1  1  0  0  0
  6 11  1  0  0  0  0
  8 13  1  0  0  0  0
  9 10  1  1  0  0  0
  9 15  1  0  0  0  0
 11 12  1  6  0  0  0
 11 17  1  0  0  0  0
 13 14  1  6  0  0  0
 13 19  1  0  0  0  0
 15 16  1  6  0  0  0
 15 20  1  0  0  0  0
 16 34  1  0  0  0  0
 17 18  1  1  0  0  0
 17 22  1  0  0  0  0
 19  2  1  1  0  0  0
 19 24  1  0  0  0  0
 20 21  1  6  0  0  0
 20 26  1  0  0  0  0
 20 33  1  0  0  0  0
 22 23  1  6  0  0  0
 22 28  1  0  0  0  0
 24 25  1  6  0  0  0
 24 30  1  0  0  0  0
 26 27  1  0  0  0  0
 28 29  1  6  0  0  0
 28 32  1  0  0  0  0
 30 31  1  1  0  0  0
M  END
>  <CHROM.1>
-165.42754323,-169.54247265,-102.77838944,-172.52690610,110.17753316,-178.36119919
20.04704894,29.91088098,35.25316428,2.20856987,0.60174306,2.85926251

>  <Name>
ligand

>  <RI>
0

>  <Rbt.Current_Directory>
/home/itssahil/PROJECTS/Mol_Feturizer/New_Systems/rnas/4p3s

>  <Rbt.Executable>
rbdock ($Id: //depot/dev/client3/rdock/2013.1/src/exe/rbdock.cxx#4 $)

>  <Rbt.Library>
libRbt.so (2013.1, Build901 2013/11/27)

>  <Rbt.Parameter_File>
/export/apps/rDock/src/rDock_2013.1_src/data/scripts/dock_solv.prm

>  <Rbt.Receptor>
prm/pocket_docking_5.prm

>  <SCORE>
-11.6815

>  <SCORE.INTER>
-8.37044

>  <SCORE.INTER.CONST>
1

>  <SCORE.INTER.POLAR>
0

>  <SCORE.INTER.ROT>
6

>  <SCORE.INTER.SOLV>
15.724

>  <SCORE.INTER.VDW>
-18.4216

>  <SCORE.INTER.norm>
-0.24619

>  <SCORE.INTRA>
-3.31108

>  <SCORE.INTRA.DIHEDRAL>
-6.37237

>  <SCORE.INTRA.DIHEDRAL.0>
15.8194

>  <SCORE.INTRA.POLAR>
0

>  <SCORE.INTRA.POLAR.0>
0

>  <SCORE.INTRA.REPUL>
0

>  <SCORE.INTRA.REPUL.0>
0

>  <SCORE.INTRA.SOLV>
-1.32528

>  <SCORE.INTRA.SOLV.lig_0>
-71.9159

>  <SCORE.INTRA.VDW>
0.537738

>  <SCORE.INTRA.VDW.0>
-3.53918

>  <SCORE.INTRA.norm>
-0.0973848

>  <SCORE.RESTR>
0

>  <SCORE.RESTR.CAVITY>
0

>  <SCORE.RESTR.norm>
0

>  <SCORE.SYSTEM>
0

>  <SCORE.SYSTEM.CONST>
0

>  <SCORE.SYSTEM.DIHEDRAL>
0

>  <SCORE.SYSTEM.SOLV>
0

>  <SCORE.SYSTEM.norm>
0

>  <SCORE.heavy>
34

>  <SCORE.norm>
-0.343574

>  <RMSD>
2.121

$$$$
ligand
 OpenBabel01301917533D
libRbt.so/2013.1/901 2013/11/27
 34 36  0  0  0  0  0  0  0  0999 V2000
   18.1833   26.9218   34.0509 C   0  0  2  0  0  0  0  0  0  0  0  0
   18.6824   26.8039   35.3870 O   0  0  0  0  0  0  0  0  0  0  0  0
   21.8109   28.8275   37.5129 C   0  0  2  0  0  0  0  0  0  0  0  0
   23.1394   29.2727   37.9551 N   0  0  0  0  0  0  0  0  0  0  0  0
   21.6064   31.4104   34.6628 C   0  0  2  0  0  0  0  0  0  0  0  0
   16.6560   26.5373   34.0648 C   0  0  2  0  0  0  0  0  0  0  0  0
   15.9015   27.4169   34.9721 N   0  0  0  0  0  0  0  0  0  0  0  0
   21.7854   27.2577   37.5797 C   0  0  0  0  0  0  0  0  0  0  0  0
   22.5056   32.6921   34.8731 C   0  0  2  0  0  0  0  0  0  0  0  0
   23.8150   32.3160   35.2639 O   0  0  0  0  0  0  0  0  0  0  0  0
   16.4795   25.0490   34.4922 C   0  0  1  0  0  0  0  0  0  0  0  0
   15.0846   24.6933   34.5065 O   0  0  0  0  0  0  0  0  0  0  0  0
   20.3599   26.7842   37.1259 C   0  0  2  0  0  0  0  0  0  0  0  0
   20.2648   25.2968   37.1589 N   0  0  0  0  0  0  0  0  0  0  0  0
   21.8377   33.5828   35.9879 C   0  0  1  0  0  0  0  0  0  0  0  0
   22.6519   34.7846   36.2592 N   0  0  0  0  0  0  0  0  0  0  0  0
   17.2841   24.1618   33.5137 C   0  0  2  0  0  0  0  0  0  0  0  0
   17.1254   22.7880   33.8817 O   0  0  0  0  0  0  0  0  0  0  0  0
   20.0460   27.2757   35.6804 C   0  0  2  0  0  0  0  0  0  0  0  0
   20.4043   33.9909   35.5217 C   0  0  1  0  0  0  0  0  0  0  0  0
   20.5213   34.7617   34.3302 O   0  0  0  0  0  0  0  0  0  0  0  0
   18.8096   24.6057   33.5574 C   0  0  2  0  0  0  0  0  0  0  0  0
   18.9511   26.0308   33.1842 O   0  0  0  0  0  0  0  0  0  0  0  0
   20.1461   28.8248   35.6360 C   0  0  2  0  0  0  0  0  0  0  0  0
   19.8859   29.2454   34.2984 O   0  0  0  0  0  0  0  0  0  0  0  0
   19.5771   32.6956   35.2398 C   0  0  0  0  0  0  0  0  0  0  0  0
   20.2540   31.8292   34.2453 O   0  0  0  0  0  0  0  0  0  0  0  0
   19.7048   23.7701   32.5978 C   0  0  2  0  0  0  0  0  0  0  0  0
   21.0758   24.1319   32.7968 O   0  0  0  0  0  0  0  0  0  0  0  0
   21.5601   29.3224   36.0248 C   0  0  1  0  0  0  0  0  0  0  0  0
   21.5491   30.7758   35.9804 O   0  0  0  0  0  0  0  0  0  0  0  0
   19.3672   24.0147   31.1436 C   0  0  0  0  0  0  0  0  0  0  0  0
   19.6791   34.8445   36.5631 C   0  0  0  0  0  0  0  0  0  0  0  0
   23.3686   34.5564   37.5379 C   0  0  0  0  0  0  0  0  0  0  0  0
  1  2  1  1  0  0  0
  1  6  1  0  0  0  0
  1 23  1  0  0  0  0
  3  4  1  6  0  0  0
  3  8  1  0  0  0  0
  3 30  1  0  0  0  0
  5  9  1  0  0  0  0
  5 27  1  0  0  0  0
  5 31  1  1  0  0  0
  6  7  1  1  0  0  0
  6 11  1  0  0  0  0
  8 13  1  0  0  0  0
  9 10  1  1  0  0  0
  9 15  1  0  0  0  0
 11 12  1  6  0  0  0
 11 17  1  0  0  0  0
 13 14  1  6  0  0  0
 13 19  1  0  0  0  0
 15 16  1  6  0  0  0
 15 20  1  0  0  0  0
 16 34  1  0  0  0  0
 17 18  1  1  0  0  0
 17 22  1  0  0  0  0
 19  2  1  1  0  0  0
 19 24  1  0  0  0  0
 20 21  1  6  0  0  0
 20 26  1  0  0  0  0
 20 33  1  0  0  0  0
 22 23  1  6  0  0  0
 22 28  1  0  0  0  0
 24 25  1  6  0  0  0
 24 30  1  0  0  0  0
 26 27  1  0  0  0  0
 28 29  1  6  0  0  0
 28 32  1  0  0  0  0
 30 31  1  1  0  0  0
M  END
>  <CHROM.1>
-172.16008820,-170.45041303,-103.71551470,-173.99143240,167.73365795,-142.98429951
19.99922042,28.74612727,35.07758054,2.01421522,0.44128481,-3.10436656

>  <Name>
ligand

>  <RI>
0

>  <Rbt.Current_Directory>
/home/itssahil/PROJECTS/Mol_Feturizer/New_Systems/rnas/4p3s

>  <Rbt.Executable>
rbdock ($Id: //depot/dev/client3/rdock/2013.1/src/exe/rbdock.cxx#4 $)

>  <Rbt.Library>
libRbt.so (2013.1, Build901 2013/11/27)

>  <Rbt.Parameter_File>
/export/apps/rDock/src/rDock_2013.1_src/data/scripts/dock_solv.prm

>  <Rbt.Receptor>
prm/pocket_docking_5.prm

>  <SCORE>
-14.1146

>  <SCORE.INTER>
-10.043

>  <SCORE.INTER.CONST>
1

>  <SCORE.INTER.POLAR>
0

>  <SCORE.INTER.ROT>
6

>  <SCORE.INTER.SOLV>
21.4398

>  <SCORE.INTER.VDW>
-21.4419

>  <SCORE.INTER.norm>
-0.295381

>  <SCORE.INTRA>
-4.07167

>  <SCORE.INTRA.DIHEDRAL>
-8.26308

>  <SCORE.INTRA.DIHEDRAL.0>
15.8194

>  <SCORE.INTRA.POLAR>
0

>  <SCORE.INTRA.POLAR.0>
0

>  <SCORE.INTRA.REPUL>
0

>  <SCORE.INTRA.REPUL.0>
0

>  <SCORE.INTRA.SOLV>
-1.85008

>  <SCORE.INTRA.SOLV.lig_0>
-71.9159

>  <SCORE.INTRA.VDW>
0.98491

>  <SCORE.INTRA.VDW.0>
-3.53918

>  <SCORE.INTRA.norm>
-0.119755

>  <SCORE.RESTR>
0

>  <SCORE.RESTR.CAVITY>
0

>  <SCORE.RESTR.norm>
0

>  <SCORE.SYSTEM>
0

>  <SCORE.SYSTEM.CONST>
0

>  <SCORE.SYSTEM.DIHEDRAL>
0

>  <SCORE.SYSTEM.SOLV>
0

>  <SCORE.SYSTEM.norm>
0

>  <SCORE.heavy>
34

>  <SCORE.norm>
-0.415136

>  <RMSD>
2.167

$$$$
ligand
 OpenBabel01301917533D
libRbt.so/2013.1/901 2013/11/27
 34 36  0  0  0  0  0  0  0  0999 V2000
   17.6619   28.0569   34.7944 C   0  0  2  0  0  0  0  0  0  0  0  0
   18.4107   27.6712   35.9514 O   0  0  0  0  0  0  0  0  0  0  0  0
   21.9147   29.3833   37.7381 C   0  0  2  0  0  0  0  0  0  0  0  0
   23.3117   29.7589   37.9949 N   0  0  0  0  0  0  0  0  0  0  0  0
   22.6738   32.2106   36.1295 C   0  0  2  0  0  0  0  0  0  0  0  0
   16.1705   27.5949   35.0020 C   0  0  2  0  0  0  0  0  0  0  0  0
   15.5951   28.2061   36.2108 N   0  0  0  0  0  0  0  0  0  0  0  0
   21.8556   27.8182   37.6109 C   0  0  0  0  0  0  0  0  0  0  0  0
   22.3325   33.7449   36.2874 C   0  0  2  0  0  0  0  0  0  0  0  0
   22.0491   34.0493   37.6422 O   0  0  0  0  0  0  0  0  0  0  0  0
   16.0971   26.0412   35.1007 C   0  0  1  0  0  0  0  0  0  0  0  0
   14.7354   25.6145   35.2907 O   0  0  0  0  0  0  0  0  0  0  0  0
   20.3602   27.4167   37.3559 C   0  0  2  0  0  0  0  0  0  0  0  0
   20.2291   25.9381   37.2183 N   0  0  0  0  0  0  0  0  0  0  0  0
   21.0831   34.0655   35.3827 C   0  0  1  0  0  0  0  0  0  0  0  0
   20.6885   35.4826   35.5134 N   0  0  0  0  0  0  0  0  0  0  0  0
   16.7082   25.4412   33.8128 C   0  0  2  0  0  0  0  0  0  0  0  0
   16.6394   24.0133   33.8778 O   0  0  0  0  0  0  0  0  0  0  0  0
   19.8175   28.0920   36.0603 C   0  0  2  0  0  0  0  0  0  0  0  0
   21.4318   33.7328   33.8975 C   0  0  1  0  0  0  0  0  0  0  0  0
   22.5143   34.5643   33.4925 O   0  0  0  0  0  0  0  0  0  0  0  0
   18.2082   25.9480   33.6743 C   0  0  2  0  0  0  0  0  0  0  0  0
   18.2584   27.4260   33.6193 O   0  0  0  0  0  0  0  0  0  0  0  0
   19.9534   29.6332   36.1937 C   0  0  2  0  0  0  0  0  0  0  0  0
   19.4800   30.2240   34.9851 O   0  0  0  0  0  0  0  0  0  0  0  0
   21.8486   32.2300   33.8011 C   0  0  0  0  0  0  0  0  0  0  0  0
   22.9762   31.9235   34.7136 O   0  0  0  0  0  0  0  0  0  0  0  0
   18.9111   25.3990   32.3996 C   0  0  2  0  0  0  0  0  0  0  0  0
   17.9513   25.2868   31.3429 O   0  0  0  0  0  0  0  0  0  0  0  0
   21.4270   30.0670   36.3902 C   0  0  1  0  0  0  0  0  0  0  0  0
   21.4506   31.5142   36.5309 O   0  0  0  0  0  0  0  0  0  0  0  0
   19.5148   24.0302   32.6247 C   0  0  0  0  0  0  0  0  0  0  0  0
   20.2576   33.9995   32.9546 C   0  0  0  0  0  0  0  0  0  0  0  0
   19.5149   35.5354   36.4193 C   0  0  0  0  0  0  0  0  0  0  0  0
  1  2  1  1  0  0  0
  1  6  1  0  0  0  0
  1 23  1  0  0  0  0
  3  4  1  6  0  0  0
  3  8  1  0  0  0  0
  3 30  1  0  0  0  0
  5  9  1  0  0  0  0
  5 27  1  0  0  0  0
  5 31  1  6  0  0  0
  6  7  1  1  0  0  0
  6 11  1  0  0  0  0
  8 13  1  0  0  0  0
  9 10  1  1  0  0  0
  9 15  1  0  0  0  0
 11 12  1  6  0  0  0
 11 17  1  0  0  0  0
 13 14  1  6  0  0  0
 13 19  1  0  0  0  0
 15 16  1  6  0  0  0
 15 20  1  0  0  0  0
 16 34  1  0  0  0  0
 17 18  1  1  0  0  0
 17 22  1  0  0  0  0
 19  2  1  1  0  0  0
 19 24  1  0  0  0  0
 20 21  1  6  0  0  0
 20 26  1  0  0  0  0
 20 33  1  0  0  0  0
 22 23  1  6  0  0  0
 22 28  1  0  0  0  0
 24 25  1  6  0  0  0
 24 30  1  0  0  0  0
 26 27  1  0  0  0  0
 28 29  1  6  0  0  0
 28 32  1  0  0  0  0
 30 31  1  1  0  0  0
M  END
>  <CHROM.1>
-174.75617777,-175.44553257,-101.47137809,34.24981604,91.63311826,175.35689485
19.75272218,29.47671326,35.20695341,2.27946698,0.75567606,2.78487219

>  <Name>
ligand

>  <RI>
0

>  <Rbt.Current_Directory>
/home/itssahil/PROJECTS/Mol_Feturizer/New_Systems/rnas/4p3s

>  <Rbt.Executable>
rbdock ($Id: //depot/dev/client3/rdock/2013.1/src/exe/rbdock.cxx#4 $)

>  <Rbt.Library>
libRbt.so (2013.1, Build901 2013/11/27)

>  <Rbt.Parameter_File>
/export/apps/rDock/src/rDock_2013.1_src/data/scripts/dock_solv.prm

>  <Rbt.Receptor>
prm/pocket_docking_4.prm

>  <SCORE>
-13.1355

>  <SCORE.INTER>
-8.46792

>  <SCORE.INTER.CONST>
1

>  <SCORE.INTER.POLAR>
0

>  <SCORE.INTER.ROT>
6

>  <SCORE.INTER.SOLV>
16.0294

>  <SCORE.INTER.VDW>
-18.5884

>  <SCORE.INTER.norm>
-0.249056

>  <SCORE.INTRA>
-4.66761

>  <SCORE.INTRA.DIHEDRAL>
-8.5274

>  <SCORE.INTRA.DIHEDRAL.0>
15.8194

>  <SCORE.INTRA.POLAR>
0

>  <SCORE.INTRA.POLAR.0>
0

>  <SCORE.INTRA.REPUL>
0

>  <SCORE.INTRA.REPUL.0>
0

>  <SCORE.INTRA.SOLV>
-0.94185

>  <SCORE.INTRA.SOLV.lig_0>
-71.9159

>  <SCORE.INTRA.VDW>
0.0670137

>  <SCORE.INTRA.VDW.0>
-3.53918

>  <SCORE.INTRA.norm>
-0.137283

>  <SCORE.RESTR>
0

>  <SCORE.RESTR.CAVITY>
0

>  <SCORE.RESTR.norm>
0

>  <SCORE.SYSTEM>
0

>  <SCORE.SYSTEM.CONST>
0

>  <SCORE.SYSTEM.DIHEDRAL>
0

>  <SCORE.SYSTEM.SOLV>
0

>  <SCORE.SYSTEM.norm>
0

>  <SCORE.heavy>
34

>  <SCORE.norm>
-0.386339

>  <RMSD>
2.203

$$$$
ligand
 OpenBabel01301917533D
libRbt.so/2013.1/901 2013/11/27
 34 36  0  0  0  0  0  0  0  0999 V2000
   18.5536   27.2365   34.3808 C   0  0  2  0  0  0  0  0  0  0  0  0
   19.0020   26.9412   35.7074 O   0  0  0  0  0  0  0  0  0  0  0  0
   22.3350   28.3676   38.0006 C   0  0  2  0  0  0  0  0  0  0  0  0
   23.7020   28.5874   38.4922 N   0  0  0  0  0  0  0  0  0  0  0  0
   21.6131   31.1792   37.5273 C   0  0  2  0  0  0  0  0  0  0  0  0
   16.9851   27.0962   34.3533 C   0  0  2  0  0  0  0  0  0  0  0  0
   16.3592   28.0121   35.3205 N   0  0  0  0  0  0  0  0  0  0  0  0
   22.0763   26.8178   37.9826 C   0  0  0  0  0  0  0  0  0  0  0  0
   20.9605   32.3342   36.6696 C   0  0  2  0  0  0  0  0  0  0  0  0
   20.0980   31.7895   35.6858 O   0  0  0  0  0  0  0  0  0  0  0  0
   16.5706   25.6260   34.6626 C   0  0  1  0  0  0  0  0  0  0  0  0
   15.1374   25.4933   34.6387 O   0  0  0  0  0  0  0  0  0  0  0  0
   20.6096   26.5851   37.4758 C   0  0  2  0  0  0  0  0  0  0  0  0
   20.2950   25.1287   37.4273 N   0  0  0  0  0  0  0  0  0  0  0  0
   22.1199   33.1533   35.9863 C   0  0  1  0  0  0  0  0  0  0  0  0
   21.5733   34.2307   35.1369 N   0  0  0  0  0  0  0  0  0  0  0  0
   17.2463   24.7001   33.6242 C   0  0  2  0  0  0  0  0  0  0  0  0
   16.8685   23.3443   33.8833 O   0  0  0  0  0  0  0  0  0  0  0  0
   20.4117   27.1895   36.0528 C   0  0  2  0  0  0  0  0  0  0  0  0
   23.0428   33.7504   37.0953 C   0  0  1  0  0  0  0  0  0  0  0  0
   22.2679   34.6367   37.8962 O   0  0  0  0  0  0  0  0  0  0  0  0
   18.8212   24.8948   33.7137 C   0  0  2  0  0  0  0  0  0  0  0  0
   19.1901   26.3041   33.4533 O   0  0  0  0  0  0  0  0  0  0  0  0
   20.7406   28.7066   36.0934 C   0  0  2  0  0  0  0  0  0  0  0  0
   20.5825   29.2276   34.7753 O   0  0  0  0  0  0  0  0  0  0  0  0
   23.5960   32.5831   37.9744 C   0  0  0  0  0  0  0  0  0  0  0  0
   22.4957   31.7734   38.5504 O   0  0  0  0  0  0  0  0  0  0  0  0
   19.5939   24.0040   32.6989 C   0  0  2  0  0  0  0  0  0  0  0  0
   21.0015   24.1657   32.9055 O   0  0  0  0  0  0  0  0  0  0  0  0
   22.2013   28.9681   36.5364 C   0  0  1  0  0  0  0  0  0  0  0  0
   22.4063   30.4073   36.5696 O   0  0  0  0  0  0  0  0  0  0  0  0
   19.2901   24.3767   31.2645 C   0  0  0  0  0  0  0  0  0  0  0  0
   24.2096   34.5468   36.5093 C   0  0  0  0  0  0  0  0  0  0  0  0
   21.8170   33.8497   33.7240 C   0  0  0  0  0  0  0  0  0  0  0  0
  1  2  1  1  0  0  0
  1  6  1  0  0  0  0
  1 23  1  0  0  0  0
  3  4  1  6  0  0  0
  3  8  1  0  0  0  0
  3 30  1  0  0  0  0
  5  9  1  0  0  0  0
  5 27  1  0  0  0  0
  5 31  1  6  0  0  0
  6  7  1  1  0  0  0
  6 11  1  0  0  0  0
  8 13  1  0  0  0  0
  9 10  1  6  0  0  0
  9 15  1  0  0  0  0
 11 12  1  6  0  0  0
 11 17  1  0  0  0  0
 13 14  1  6  0  0  0
 13 19  1  0  0  0  0
 15 16  1  1  0  0  0
 15 20  1  0  0  0  0
 16 34  1  0  0  0  0
 17 18  1  1  0  0  0
 17 22  1  0  0  0  0
 19  2  1  1  0  0  0
 19 24  1  0  0  0  0
 20 21  1  1  0  0  0
 20 26  1  0  0  0  0
 20 33  1  0  0  0  0
 22 23  1  6  0  0  0
 22 28  1  0  0  0  0
 24 25  1  6  0  0  0
 24 30  1  0  0  0  0
 26 27  1  0  0  0  0
 28 29  1  1  0  0  0
 28 32  1  0  0  0  0
 30 31  1  1  0  0  0
M  END
>  <CHROM.1>
-171.22727195,-172.29388336,-109.23685866,-175.96252558,-51.84888394,-128.62990537
20.39663973,28.71143967,35.64466199,2.24759929,0.72617607,3.00800075

>  <Name>
ligand

>  <RI>
0

>  <Rbt.Current_Directory>
/home/itssahil/PROJECTS/Mol_Feturizer/New_Systems/rnas/4p3s

>  <Rbt.Executable>
rbdock ($Id: //depot/dev/client3/rdock/2013.1/src/exe/rbdock.cxx#4 $)

>  <Rbt.Library>
libRbt.so (2013.1, Build901 2013/11/27)

>  <Rbt.Parameter_File>
/export/apps/rDock/src/rDock_2013.1_src/data/scripts/dock_solv.prm

>  <Rbt.Receptor>
prm/pocket_docking_4.prm

>  <SCORE>
-13.9011

>  <SCORE.INTER>
-11.2683

>  <SCORE.INTER.CONST>
1

>  <SCORE.INTER.POLAR>
0

>  <SCORE.INTER.ROT>
6

>  <SCORE.INTER.SOLV>
20.4734

>  <SCORE.INTER.VDW>
-21.9367

>  <SCORE.INTER.norm>
-0.331422

>  <SCORE.INTRA>
-2.63272

>  <SCORE.INTRA.DIHEDRAL>
-6.75807

>  <SCORE.INTRA.DIHEDRAL.0>
15.8194

>  <SCORE.INTRA.POLAR>
0

>  <SCORE.INTRA.POLAR.0>
0

>  <SCORE.INTRA.REPUL>
0

>  <SCORE.INTRA.REPUL.0>
0

>  <SCORE.INTRA.SOLV>
-0.311244

>  <SCORE.INTRA.SOLV.lig_0>
-71.9159

>  <SCORE.INTRA.VDW>
0.901938

>  <SCORE.INTRA.VDW.0>
-3.53918

>  <SCORE.INTRA.norm>
-0.0774329

>  <SCORE.RESTR>
0

>  <SCORE.RESTR.CAVITY>
0

>  <SCORE.RESTR.norm>
0

>  <SCORE.SYSTEM>
0

>  <SCORE.SYSTEM.CONST>
0

>  <SCORE.SYSTEM.DIHEDRAL>
0

>  <SCORE.SYSTEM.SOLV>
0

>  <SCORE.SYSTEM.norm>
0

>  <SCORE.heavy>
34

>  <SCORE.norm>
-0.408855

>  <RMSD>
2.240

$$$$
ligand
 OpenBabel01301917533D
libRbt.so/2013.1/901 2013/11/27
 34 36  0  0  0  0  0  0  0  0999 V2000
   18.0654   26.9853   34.5282 C   0  0  2  0  0  0  0  0  0  0  0  0
   18.6093   26.6600   35.8113 O   0  0  0  0  0  0  0  0  0  0  0  0
   22.1419   27.8236   37.9488 C   0  0  2  0  0  0  0  0  0  0  0  0
   23.5489   27.9983   38.3340 N   0  0  0  0  0  0  0  0  0  0  0  0
   21.1820   30.7130   37.7493 C   0  0  2  0  0  0  0  0  0  0  0  0
   16.5039   27.1235   34.6809 C   0  0  2  0  0  0  0  0  0  0  0  0
   16.1626   28.1673   35.6607 N   0  0  0  0  0  0  0  0  0  0  0  0
   21.8877   26.2859   37.7490 C   0  0  0  0  0  0  0  0  0  0  0  0
   21.5410   32.2450   37.6105 C   0  0  2  0  0  0  0  0  0  0  0  0
   21.2543   32.7009   36.2995 O   0  0  0  0  0  0  0  0  0  0  0  0
   15.8825   25.7608   35.1120 C   0  0  1  0  0  0  0  0  0  0  0  0
   14.4551   25.8826   35.2530 O   0  0  0  0  0  0  0  0  0  0  0  0
   20.3800   26.0988   37.3566 C   0  0  2  0  0  0  0  0  0  0  0  0
   20.0671   24.6567   37.1443 N   0  0  0  0  0  0  0  0  0  0  0  0
   23.0745   32.4205   37.9265 C   0  0  1  0  0  0  0  0  0  0  0  0
   23.4842   33.8316   37.7782 N   0  0  0  0  0  0  0  0  0  0  0  0
   16.2624   24.6959   34.0566 C   0  0  2  0  0  0  0  0  0  0  0  0
   15.6905   23.4376   34.4277 O   0  0  0  0  0  0  0  0  0  0  0  0
   20.0448   26.8830   36.0520 C   0  0  2  0  0  0  0  0  0  0  0  0
   23.3545   31.9228   39.3798 C   0  0  1  0  0  0  0  0  0  0  0  0
   22.6065   32.7299   40.2835 O   0  0  0  0  0  0  0  0  0  0  0  0
   17.8467   24.6122   33.9618 C   0  0  2  0  0  0  0  0  0  0  0  0
   18.4188   25.9247   33.5875 O   0  0  0  0  0  0  0  0  0  0  0  0
   20.3710   28.3864   36.2631 C   0  0  2  0  0  0  0  0  0  0  0  0
   20.0856   29.0748   35.0472 O   0  0  0  0  0  0  0  0  0  0  0  0
   22.9038   30.4315   39.4984 C   0  0  0  0  0  0  0  0  0  0  0  0
   21.4784   30.2675   39.1250 O   0  0  0  0  0  0  0  0  0  0  0  0
   18.3303   23.5656   32.9173 C   0  0  2  0  0  0  0  0  0  0  0  0
   19.7580   23.4713   32.9701 O   0  0  0  0  0  0  0  0  0  0  0  0
   21.8665   28.6104   36.5970 C   0  0  1  0  0  0  0  0  0  0  0  0
   22.0689   30.0357   36.8023 O   0  0  0  0  0  0  0  0  0  0  0  0
   17.9428   23.9464   31.5054 C   0  0  0  0  0  0  0  0  0  0  0  0
   24.8318   32.0423   39.7570 C   0  0  0  0  0  0  0  0  0  0  0  0
   24.0254   33.9954   36.4067 C   0  0  0  0  0  0  0  0  0  0  0  0
  1  2  1  1  0  0  0
  1  6  1  0  0  0  0
  1 23  1  0  0  0  0
  3  4  1  6  0  0  0
  3  8  1  0  0  0  0
  3 30  1  0  0  0  0
  5  9  1  0  0  0  0
  5 27  1  0  0  0  0
  5 31  1  6  0  0  0
  6  7  1  1  0  0  0
  6 11  1  0  0  0  0
  8 13  1  0  0  0  0
  9 10  1  6  0  0  0
  9 15  1  0  0  0  0
 11 12  1  6  0  0  0
 11 17  1  0  0  0  0
 13 14  1  6  0  0  0
 13 19  1  0  0  0  0
 15 16  1  1  0  0  0
 15 20  1  0  0  0  0
 16 34  1  0  0  0  0
 17 18  1  1  0  0  0
 17 22  1  0  0  0  0
 19  2  1  1  0  0  0
 19 24  1  0  0  0  0
 20 21  1  1  0  0  0
 20 26  1  0  0  0  0
 20 33  1  0  0  0  0
 22 23  1  6  0  0  0
 22 28  1  0  0  0  0
 24 25  1  6  0  0  0
 24 30  1  0  0  0  0
 26 27  1  0  0  0  0
 28 29  1  6  0  0  0
 28 32  1  0  0  0  0
 30 31  1  1  0  0  0
M  END
>  <CHROM.1>
-161.10009785,-165.43589048,-94.83546556,-175.27621800,-63.39345602,-173.38544312
20.16863803,28.22375923,36.32201454,2.27272005,0.48186127,-2.96997417

>  <Name>
ligand

>  <RI>
0

>  <Rbt.Current_Directory>
/home/itssahil/PROJECTS/Mol_Feturizer/New_Systems/rnas/4p3s

>  <Rbt.Executable>
rbdock ($Id: //depot/dev/client3/rdock/2013.1/src/exe/rbdock.cxx#4 $)

>  <Rbt.Library>
libRbt.so (2013.1, Build901 2013/11/27)

>  <Rbt.Parameter_File>
/export/apps/rDock/src/rDock_2013.1_src/data/scripts/dock_solv.prm

>  <Rbt.Receptor>
prm/pocket_docking_2.prm

>  <SCORE>
-10.465

>  <SCORE.INTER>
-8.6683

>  <SCORE.INTER.CONST>
1

>  <SCORE.INTER.POLAR>
0

>  <SCORE.INTER.ROT>
6

>  <SCORE.INTER.SOLV>
20.6372

>  <SCORE.INTER.VDW>
-20.2579

>  <SCORE.INTER.norm>
-0.25495

>  <SCORE.INTRA>
-3.03436

>  <SCORE.INTRA.DIHEDRAL>
-11.9756

>  <SCORE.INTRA.DIHEDRAL.0>
15.8194

>  <SCORE.INTRA.POLAR>
0

>  <SCORE.INTRA.POLAR.0>
0

>  <SCORE.INTRA.REPUL>
0

>  <SCORE.INTRA.REPUL.0>
0

>  <SCORE.INTRA.SOLV>
1.18922

>  <SCORE.INTRA.SOLV.lig_0>
-71.9159

>  <SCORE.INTRA.VDW>
2.35884

>  <SCORE.INTRA.VDW.0>
-3.53918

>  <SCORE.INTRA.norm>
-0.0892458

>  <SCORE.RESTR>
1.23761

>  <SCORE.RESTR.CAVITY>
1.23761

>  <SCORE.RESTR.norm>
0.0364003

>  <SCORE.SYSTEM>
0

>  <SCORE.SYSTEM.CONST>
0

>  <SCORE.SYSTEM.DIHEDRAL>
0

>  <SCORE.SYSTEM.SOLV>
0

>  <SCORE.SYSTEM.norm>
0

>  <SCORE.heavy>
34

>  <SCORE.norm>
-0.307796

>  <RMSD>
2.241

$$$$
ligand
 OpenBabel01301917533D
libRbt.so/2013.1/901 2013/11/27
 34 36  0  0  0  0  0  0  0  0999 V2000
   18.6564   27.6283   34.9424 C   0  0  2  0  0  0  0  0  0  0  0  0
   19.1292   27.2094   36.2265 O   0  0  0  0  0  0  0  0  0  0  0  0
   22.5438   28.9345   38.1675 C   0  0  2  0  0  0  0  0  0  0  0  0
   23.9142   29.1581   38.6476 N   0  0  0  0  0  0  0  0  0  0  0  0
   22.6381   31.4881   37.1584 C   0  0  2  0  0  0  0  0  0  0  0  0
   17.0824   27.6624   34.9893 C   0  0  2  0  0  0  0  0  0  0  0  0
   16.6082   28.5837   36.0345 N   0  0  0  0  0  0  0  0  0  0  0  0
   22.1130   27.4884   38.6061 C   0  0  0  0  0  0  0  0  0  0  0  0
   21.2001   32.0355   36.8010 C   0  0  2  0  0  0  0  0  0  0  0  0
   20.2279   31.0204   36.9823 O   0  0  0  0  0  0  0  0  0  0  0  0
   16.5203   26.2309   35.2421 C   0  0  1  0  0  0  0  0  0  0  0  0
   15.0817   26.2575   35.2859 O   0  0  0  0  0  0  0  0  0  0  0  0
   20.6424   27.2577   38.1097 C   0  0  2  0  0  0  0  0  0  0  0  0
   20.1674   25.8961   38.4876 N   0  0  0  0  0  0  0  0  0  0  0  0
   21.2162   32.5146   35.3002 C   0  0  1  0  0  0  0  0  0  0  0  0
   19.8853   33.0065   34.8906 N   0  0  0  0  0  0  0  0  0  0  0  0
   17.0395   25.2983   34.1228 C   0  0  2  0  0  0  0  0  0  0  0  0
   16.5243   23.9793   34.3297 O   0  0  0  0  0  0  0  0  0  0  0  0
   20.5489   27.4107   36.5614 C   0  0  2  0  0  0  0  0  0  0  0  0
   22.2859   33.6403   35.1370 C   0  0  1  0  0  0  0  0  0  0  0  0
   21.9130   34.7384   35.9631 O   0  0  0  0  0  0  0  0  0  0  0  0
   18.6287   25.3140   34.1403 C   0  0  2  0  0  0  0  0  0  0  0  0
   19.1410   26.6871   33.9354 O   0  0  0  0  0  0  0  0  0  0  0  0
   21.0451   28.8259   36.1583 C   0  0  2  0  0  0  0  0  0  0  0  0
   20.9792   28.9283   34.7374 O   0  0  0  0  0  0  0  0  0  0  0  0
   23.6760   33.0844   35.5845 C   0  0  0  0  0  0  0  0  0  0  0  0
   23.6284   32.5668   36.9730 O   0  0  0  0  0  0  0  0  0  0  0  0
   19.2492   24.4043   33.0413 C   0  0  2  0  0  0  0  0  0  0  0  0
   20.6765   24.4390   33.1507 O   0  0  0  0  0  0  0  0  0  0  0  0
   22.5146   29.0646   36.5849 C   0  0  1  0  0  0  0  0  0  0  0  0
   22.8791   30.4162   36.1913 O   0  0  0  0  0  0  0  0  0  0  0  0
   18.8799   24.8599   31.6469 C   0  0  0  0  0  0  0  0  0  0  0  0
   22.3770   34.1466   33.6968 C   0  0  0  0  0  0  0  0  0  0  0  0
   19.2878   31.9821   33.9993 C   0  0  0  0  0  0  0  0  0  0  0  0
  1  2  1  1  0  0  0
  1  6  1  0  0  0  0
  1 23  1  0  0  0  0
  3  4  1  6  0  0  0
  3  8  1  0  0  0  0
  3 30  1  0  0  0  0
  5  9  1  0  0  0  0
  5 27  1  0  0  0  0
  5 31  1  6  0  0  0
  6  7  1  1  0  0  0
  6 11  1  0  0  0  0
  8 13  1  0  0  0  0
  9 10  1  6  0  0  0
  9 15  1  0  0  0  0
 11 12  1  6  0  0  0
 11 17  1  0  0  0  0
 13 14  1  6  0  0  0
 13 19  1  0  0  0  0
 15 16  1  1  0  0  0
 15 20  1  0  0  0  0
 16 34  1  0  0  0  0
 17 18  1  1  0  0  0
 17 22  1  0  0  0  0
 19  2  1  1  0  0  0
 19 24  1  0  0  0  0
 20 21  1  1  0  0  0
 20 26  1  0  0  0  0
 20 33  1  0  0  0  0
 22 23  1  6  0  0  0
 22 28  1  0  0  0  0
 24 25  1  6  0  0  0
 24 30  1  0  0  0  0
 26 27  1  0  0  0  0
 28 29  1  6  0  0  0
 28 32  1  0  0  0  0
 30 31  1  1  0  0  0
M  END
>  <CHROM.1>
-164.97129725,163.72387338,-106.38561362,-178.14434023,-25.57955091,-92.54419248
20.25153800,28.88701520,35.61235446,2.32417830,0.69472442,2.83247604

>  <Name>
ligand

>  <RI>
0

>  <Rbt.Current_Directory>
/home/itssahil/PROJECTS/Mol_Feturizer/New_Systems/rnas/4p3s

>  <Rbt.Executable>
rbdock ($Id: //depot/dev/client3/rdock/2013.1/src/exe/rbdock.cxx#4 $)

>  <Rbt.Library>
libRbt.so (2013.1, Build901 2013/11/27)

>  <Rbt.Parameter_File>
/export/apps/rDock/src/rDock_2013.1_src/data/scripts/dock_solv.prm

>  <Rbt.Receptor>
prm/pocket_docking_3.prm

>  <SCORE>
-4.70002

>  <SCORE.INTER>
-7.21476

>  <SCORE.INTER.CONST>
1

>  <SCORE.INTER.POLAR>
0

>  <SCORE.INTER.ROT>
6

>  <SCORE.INTER.SOLV>
16.1858

>  <SCORE.INTER.VDW>
-17.8051

>  <SCORE.INTER.norm>
-0.212199

>  <SCORE.INTRA>
2.40205

>  <SCORE.INTRA.DIHEDRAL>
-3.95522

>  <SCORE.INTRA.DIHEDRAL.0>
15.8194

>  <SCORE.INTRA.POLAR>
0

>  <SCORE.INTRA.POLAR.0>
0

>  <SCORE.INTRA.REPUL>
0

>  <SCORE.INTRA.REPUL.0>
0

>  <SCORE.INTRA.SOLV>
-0.20524

>  <SCORE.INTRA.SOLV.lig_0>
-71.9159

>  <SCORE.INTRA.VDW>
4.48228

>  <SCORE.INTRA.VDW.0>
-3.53918

>  <SCORE.INTRA.norm>
0.0706486

>  <SCORE.RESTR>
0.112692

>  <SCORE.RESTR.CAVITY>
0.112692

>  <SCORE.RESTR.norm>
0.00331448

>  <SCORE.SYSTEM>
0

>  <SCORE.SYSTEM.CONST>
0

>  <SCORE.SYSTEM.DIHEDRAL>
0

>  <SCORE.SYSTEM.SOLV>
0

>  <SCORE.SYSTEM.norm>
0

>  <SCORE.heavy>
34

>  <SCORE.norm>
-0.138236

>  <RMSD>
2.277

$$$$
ligand
 OpenBabel01301917533D
libRbt.so/2013.1/901 2013/11/27
 34 36  0  0  0  0  0  0  0  0999 V2000
   18.1218   27.3159   34.3506 C   0  0  2  0  0  0  0  0  0  0  0  0
   18.7035   26.9366   35.6020 O   0  0  0  0  0  0  0  0  0  0  0  0
   22.0866   28.5973   37.6509 C   0  0  2  0  0  0  0  0  0  0  0  0
   23.4667   28.8983   38.0551 N   0  0  0  0  0  0  0  0  0  0  0  0
   21.1443   31.3582   37.0784 C   0  0  2  0  0  0  0  0  0  0  0  0
   16.5553   27.2894   34.5126 C   0  0  2  0  0  0  0  0  0  0  0  0
   16.1222   28.2083   35.5775 N   0  0  0  0  0  0  0  0  0  0  0  0
   21.9036   27.0374   37.6976 C   0  0  0  0  0  0  0  0  0  0  0  0
   20.6808   32.6183   36.2462 C   0  0  2  0  0  0  0  0  0  0  0  0
   19.8928   32.2146   35.1396 O   0  0  0  0  0  0  0  0  0  0  0  0
   16.0710   25.8414   34.8251 C   0  0  1  0  0  0  0  0  0  0  0  0
   14.6395   25.8125   34.9742 O   0  0  0  0  0  0  0  0  0  0  0  0
   20.4238   26.7183   37.2845 C   0  0  2  0  0  0  0  0  0  0  0  0
   20.1789   25.2479   37.3009 N   0  0  0  0  0  0  0  0  0  0  0  0
   21.9679   33.3802   35.7512 C   0  0  1  0  0  0  0  0  0  0  0  0
   21.6025   34.5537   34.9325 N   0  0  0  0  0  0  0  0  0  0  0  0
   16.5441   24.9117   33.6832 C   0  0  2  0  0  0  0  0  0  0  0  0
   16.0986   23.5772   33.9448 O   0  0  0  0  0  0  0  0  0  0  0  0
   20.1165   27.2629   35.8568 C   0  0  2  0  0  0  0  0  0  0  0  0
   22.8059   33.8226   36.9923 C   0  0  1  0  0  0  0  0  0  0  0  0
   22.0177   34.7161   37.7719 O   0  0  0  0  0  0  0  0  0  0  0  0
   18.1284   24.9896   33.5836 C   0  0  2  0  0  0  0  0  0  0  0  0
   18.5690   26.3782   33.3233 O   0  0  0  0  0  0  0  0  0  0  0  0
   20.3723   28.7944   35.8297 C   0  0  2  0  0  0  0  0  0  0  0  0
   20.1146   29.2613   34.5071 O   0  0  0  0  0  0  0  0  0  0  0  0
   23.1676   32.5571   37.8344 C   0  0  0  0  0  0  0  0  0  0  0  0
   21.9516   31.8067   38.2299 O   0  0  0  0  0  0  0  0  0  0  0  0
   18.7031   24.0871   32.4541 C   0  0  2  0  0  0  0  0  0  0  0  0
   18.2051   22.7544   32.6158 O   0  0  0  0  0  0  0  0  0  0  0  0
   21.8411   29.1397   36.1785 C   0  0  1  0  0  0  0  0  0  0  0  0
   21.9767   30.5873   36.1538 O   0  0  0  0  0  0  0  0  0  0  0  0
   20.2143   24.0243   32.4862 C   0  0  0  0  0  0  0  0  0  0  0  0
   24.0878   34.5548   36.5928 C   0  0  0  0  0  0  0  0  0  0  0  0
   21.8007   34.1823   33.5100 C   0  0  0  0  0  0  0  0  0  0  0  0
  1  2  1  1  0  0  0
  1  6  1  0  0  0  0
  1 23  1  0  0  0  0
  3  4  1  6  0  0  0
  3  8  1  0  0  0  0
  3 30  1  0  0  0  0
  5  9  1  0  0  0  0
  5 27  1  0  0  0  0
  5 31  1  6  0  0  0
  6  7  1  1  0  0  0
  6 11  1  0  0  0  0
  8 13  1  0  0  0  0
  9 10  1  6  0  0  0
  9 15  1  0  0  0  0
 11 12  1  6  0  0  0
 11 17  1  0  0  0  0
 13 14  1  6  0  0  0
 13 19  1  0  0  0  0
 15 16  1  1  0  0  0
 15 20  1  0  0  0  0
 16 34  1  0  0  0  0
 17 18  1  1  0  0  0
 17 22  1  0  0  0  0
 19  2  1  1  0  0  0
 19 24  1  0  0  0  0
 20 21  1  1  0  0  0
 20 26  1  0  0  0  0
 20 33  1  0  0  0  0
 22 23  1  6  0  0  0
 22 28  1  0  0  0  0
 24 25  1  6  0  0  0
 24 30  1  0  0  0  0
 26 27  1  0  0  0  0
 28 29  1  1  0  0  0
 28 32  1  0  0  0  0
 30 31  1  1  0  0  0
M  END
>  <CHROM.1>
-161.74650680,-179.97102732,-101.81754309,-52.83614688,-55.29024554,-140.10567008
19.99212948,28.80567362,35.52217197,2.20429016,0.60158491,3.05460571

>  <Name>
ligand

>  <RI>
0

>  <Rbt.Current_Directory>
/home/itssahil/PROJECTS/Mol_Feturizer/New_Systems/rnas/4p3s

>  <Rbt.Executable>
rbdock ($Id: //depot/dev/client3/rdock/2013.1/src/exe/rbdock.cxx#4 $)

>  <Rbt.Library>
libRbt.so (2013.1, Build901 2013/11/27)

>  <Rbt.Parameter_File>
/export/apps/rDock/src/rDock_2013.1_src/data/scripts/dock_solv.prm

>  <Rbt.Receptor>
prm/pocket_docking_3.prm

>  <SCORE>
-14.2378

>  <SCORE.INTER>
-11.4075

>  <SCORE.INTER.CONST>
1

>  <SCORE.INTER.POLAR>
0

>  <SCORE.INTER.ROT>
6

>  <SCORE.INTER.SOLV>
18.4039

>  <SCORE.INTER.VDW>
-21.3396

>  <SCORE.INTER.norm>
-0.335515

>  <SCORE.INTRA>
-2.83033

>  <SCORE.INTRA.DIHEDRAL>
-7.58108

>  <SCORE.INTRA.DIHEDRAL.0>
15.8194

>  <SCORE.INTRA.POLAR>
0

>  <SCORE.INTRA.POLAR.0>
0

>  <SCORE.INTRA.REPUL>
0

>  <SCORE.INTRA.REPUL.0>
0

>  <SCORE.INTRA.SOLV>
0.109081

>  <SCORE.INTRA.SOLV.lig_0>
-71.9159

>  <SCORE.INTRA.VDW>
0.90567

>  <SCORE.INTRA.VDW.0>
-3.53918

>  <SCORE.INTRA.norm>
-0.083245

>  <SCORE.RESTR>
0

>  <SCORE.RESTR.CAVITY>
0

>  <SCORE.RESTR.norm>
0

>  <SCORE.SYSTEM>
0

>  <SCORE.SYSTEM.CONST>
0

>  <SCORE.SYSTEM.DIHEDRAL>
0

>  <SCORE.SYSTEM.SOLV>
0

>  <SCORE.SYSTEM.norm>
0

>  <SCORE.heavy>
34

>  <SCORE.norm>
-0.41876

>  <RMSD>
2.321

$$$$
ligand
 OpenBabel01301917533D
libRbt.so/2013.1/901 2013/11/27
 34 36  0  0  0  0  0  0  0  0999 V2000
   18.4113   27.1982   34.4829 C   0  0  2  0  0  0  0  0  0  0  0  0
   18.8691   26.7742   35.7708 O   0  0  0  0  0  0  0  0  0  0  0  0
   22.4277   27.4041   38.0820 C   0  0  2  0  0  0  0  0  0  0  0  0
   23.8312   27.4017   38.5164 N   0  0  0  0  0  0  0  0  0  0  0  0
   21.7284   30.4133   38.0044 C   0  0  2  0  0  0  0  0  0  0  0  0
   16.8696   26.8907   34.3874 C   0  0  2  0  0  0  0  0  0  0  0  0
   16.1282   27.5897   35.4494 N   0  0  0  0  0  0  0  0  0  0  0  0
   22.0232   25.9198   37.7620 C   0  0  0  0  0  0  0  0  0  0  0  0
   22.1910   31.9203   37.9020 C   0  0  2  0  0  0  0  0  0  0  0  0
   22.0082   32.4026   36.5820 O   0  0  0  0  0  0  0  0  0  0  0  0
   16.6201   25.3552   34.4818 C   0  0  1  0  0  0  0  0  0  0  0  0
   15.2118   25.0696   34.3951 O   0  0  0  0  0  0  0  0  0  0  0  0
   20.5185   25.9211   37.3168 C   0  0  2  0  0  0  0  0  0  0  0  0
   20.0659   24.5388   36.9898 N   0  0  0  0  0  0  0  0  0  0  0  0
   23.7123   31.9953   38.3050 C   0  0  1  0  0  0  0  0  0  0  0  0
   24.2183   33.3783   38.1948 N   0  0  0  0  0  0  0  0  0  0  0  0
   17.4132   24.6617   33.3495 C   0  0  2  0  0  0  0  0  0  0  0  0
   17.1879   23.2498   33.4109 O   0  0  0  0  0  0  0  0  0  0  0  0
   20.3108   26.8269   36.0655 C   0  0  2  0  0  0  0  0  0  0  0  0
   23.8777   31.4706   39.7664 C   0  0  1  0  0  0  0  0  0  0  0  0
   23.1326   32.3174   40.6354 O   0  0  0  0  0  0  0  0  0  0  0  0
   18.9541   25.0149   33.5140 C   0  0  2  0  0  0  0  0  0  0  0  0
   19.1645   26.4787   33.4584 O   0  0  0  0  0  0  0  0  0  0  0  0
   20.7830   28.2688   36.3963 C   0  0  2  0  0  0  0  0  0  0  0  0
   20.6119   29.0680   35.2276 O   0  0  0  0  0  0  0  0  0  0  0  0
   23.3274   30.0102   39.8439 C   0  0  0  0  0  0  0  0  0  0  0  0
   21.9178   29.9402   39.3897 O   0  0  0  0  0  0  0  0  0  0  0  0
   19.8392   24.3634   32.4129 C   0  0  2  0  0  0  0  0  0  0  0  0
   19.1882   24.4961   31.1446 O   0  0  0  0  0  0  0  0  0  0  0  0
   22.2814   28.3096   36.7855 C   0  0  1  0  0  0  0  0  0  0  0  0
   22.6226   29.6874   37.1013 O   0  0  0  0  0  0  0  0  0  0  0  0
   20.0703   22.8895   32.6635 C   0  0  0  0  0  0  0  0  0  0  0  0
   25.3359   31.4928   40.2268 C   0  0  0  0  0  0  0  0  0  0  0  0
   24.3734   33.6809   36.7508 C   0  0  0  0  0  0  0  0  0  0  0  0
  1  2  1  1  0  0  0
  1  6  1  0  0  0  0
  1 23  1  0  0  0  0
  3  4  1  6  0  0  0
  3  8  1  0  0  0  0
  3 30  1  0  0  0  0
  5  9  1  0  0  0  0
  5 27  1  0  0  0  0
  5 31  1  6  0  0  0
  6  7  1  1  0  0  0
  6 11  1  0  0  0  0
  8 13  1  0  0  0  0
  9 10  1  6  0  0  0
  9 15  1  0  0  0  0
 11 12  1  6  0  0  0
 11 17  1  0  0  0  0
 13 14  1  6  0  0  0
 13 19  1  0  0  0  0
 15 16  1  1  0  0  0
 15 20  1  0  0  0  0
 16 34  1  0  0  0  0
 17 18  1  1  0  0  0
 17 22  1  0  0  0  0
 19  2  1  1  0  0  0
 19 24  1  0  0  0  0
 20 21  1  1  0  0  0
 20 26  1  0  0  0  0
 20 33  1  0  0  0  0
 22 23  1  6  0  0  0
 22 28  1  0  0  0  0
 24 25  1  6  0  0  0
 24 30  1  0  0  0  0
 26 27  1  0  0  0  0
 28 29  1  6  0  0  0
 28 32  1  0  0  0  0
 30 31  1  1  0  0  0
M  END
>  <CHROM.1>
173.91914994,-163.10792665,-74.04178189,42.84206417,-67.30415800,-168.57169708
20.73131082,28.01899826,36.29331704,2.35116977,0.67498204,-3.04399665

>  <Name>
ligand

>  <RI>
0

>  <Rbt.Current_Directory>
/home/itssahil/PROJECTS/Mol_Feturizer/New_Systems/rnas/4p3s

>  <Rbt.Executable>
rbdock ($Id: //depot/dev/client3/rdock/2013.1/src/exe/rbdock.cxx#4 $)

>  <Rbt.Library>
libRbt.so (2013.1, Build901 2013/11/27)

>  <Rbt.Parameter_File>
/export/apps/rDock/src/rDock_2013.1_src/data/scripts/dock_solv.prm

>  <Rbt.Receptor>
prm/blind_docking_80.prm

>  <SCORE>
-1.6509

>  <SCORE.INTER>
-4.03881

>  <SCORE.INTER.CONST>
1

>  <SCORE.INTER.POLAR>
0

>  <SCORE.INTER.ROT>
6

>  <SCORE.INTER.SOLV>
22.98

>  <SCORE.INTER.VDW>
-17.9525

>  <SCORE.INTER.norm>
-0.118789

>  <SCORE.INTRA>
-1.95636

>  <SCORE.INTRA.DIHEDRAL>
-12.1848

>  <SCORE.INTRA.DIHEDRAL.0>
15.8194

>  <SCORE.INTRA.POLAR>
0

>  <SCORE.INTRA.POLAR.0>
0

>  <SCORE.INTRA.REPUL>
0

>  <SCORE.INTRA.REPUL.0>
0

>  <SCORE.INTRA.SOLV>
1.26183

>  <SCORE.INTRA.SOLV.lig_0>
-71.9159

>  <SCORE.INTRA.VDW>
3.50513

>  <SCORE.INTRA.VDW.0>
-3.53918

>  <SCORE.INTRA.norm>
-0.0575399

>  <SCORE.RESTR>
4.34427

>  <SCORE.RESTR.CAVITY>
4.34427

>  <SCORE.RESTR.norm>
0.127773

>  <SCORE.SYSTEM>
0

>  <SCORE.SYSTEM.CONST>
0

>  <SCORE.SYSTEM.DIHEDRAL>
0

>  <SCORE.SYSTEM.SOLV>
0

>  <SCORE.SYSTEM.norm>
0

>  <SCORE.heavy>
34

>  <SCORE.norm>
-0.048556

>  <RMSD>
2.475

$$$$
ligand
 OpenBabel01301917533D
libRbt.so/2013.1/901 2013/11/27
 34 36  0  0  0  0  0  0  0  0999 V2000
   18.0750   27.0848   34.1932 C   0  0  2  0  0  0  0  0  0  0  0  0
   18.6505   26.8652   35.4850 O   0  0  0  0  0  0  0  0  0  0  0  0
   21.9491   28.7609   37.4669 C   0  0  2  0  0  0  0  0  0  0  0  0
   23.3129   29.1478   37.8529 N   0  0  0  0  0  0  0  0  0  0  0  0
   20.9400   31.4502   36.9129 C   0  0  2  0  0  0  0  0  0  0  0  0
   16.6075   26.5128   34.2092 C   0  0  2  0  0  0  0  0  0  0  0  0
   15.7990   27.1708   35.2481 N   0  0  0  0  0  0  0  0  0  0  0  0
   21.8536   27.1948   37.5525 C   0  0  0  0  0  0  0  0  0  0  0  0
   20.5309   32.7871   36.1775 C   0  0  2  0  0  0  0  0  0  0  0  0
   19.7082   32.5019   35.0594 O   0  0  0  0  0  0  0  0  0  0  0  0
   16.6328   24.9726   34.4459 C   0  0  1  0  0  0  0  0  0  0  0  0
   15.2932   24.4455   34.4615 O   0  0  0  0  0  0  0  0  0  0  0  0
   20.3913   26.7840   37.1588 C   0  0  2  0  0  0  0  0  0  0  0  0
   20.2288   25.3030   37.2125 N   0  0  0  0  0  0  0  0  0  0  0  0
   21.8489   33.5155   35.7142 C   0  0  1  0  0  0  0  0  0  0  0  0
   21.5336   34.7602   34.9847 N   0  0  0  0  0  0  0  0  0  0  0  0
   17.4885   24.3222   33.3338 C   0  0  2  0  0  0  0  0  0  0  0  0
   17.5146   22.9043   33.5258 O   0  0  0  0  0  0  0  0  0  0  0  0
   20.0449   27.2756   35.7209 C   0  0  2  0  0  0  0  0  0  0  0  0
   22.7254   33.8273   36.9682 C   0  0  1  0  0  0  0  0  0  0  0  0
   21.9951   34.7031   37.8210 O   0  0  0  0  0  0  0  0  0  0  0  0
   18.9498   24.9452   33.3827 C   0  0  2  0  0  0  0  0  0  0  0  0
   18.9001   26.4120   33.1927 O   0  0  0  0  0  0  0  0  0  0  0  0
   20.2147   28.8178   35.6549 C   0  0  2  0  0  0  0  0  0  0  0  0
   19.9229   29.2372   34.3235 O   0  0  0  0  0  0  0  0  0  0  0  0
   23.0327   32.4895   37.7148 C   0  0  0  0  0  0  0  0  0  0  0  0
   21.7850   31.7759   38.0785 O   0  0  0  0  0  0  0  0  0  0  0  0
   19.8900   24.3546   32.2929 C   0  0  2  0  0  0  0  0  0  0  0  0
   19.1907   24.3021   31.0446 O   0  0  0  0  0  0  0  0  0  0  0  0
   21.6643   29.2525   35.9838 C   0  0  1  0  0  0  0  0  0  0  0  0
   21.7188   30.7044   35.9232 O   0  0  0  0  0  0  0  0  0  0  0  0
   20.3438   22.9512   32.6294 C   0  0  0  0  0  0  0  0  0  0  0  0
   24.0379   34.5197   36.5982 C   0  0  0  0  0  0  0  0  0  0  0  0
   21.5994   34.4543   33.5346 C   0  0  0  0  0  0  0  0  0  0  0  0
  1  2  1  1  0  0  0
  1  6  1  0  0  0  0
  1 23  1  0  0  0  0
  3  4  1  6  0  0  0
  3  8  1  0  0  0  0
  3 30  1  0  0  0  0
  5  9  1  0  0  0  0
  5 27  1  0  0  0  0
  5 31  1  6  0  0  0
  6  7  1  1  0  0  0
  6 11  1  0  0  0  0
  8 13  1  0  0  0  0
  9 10  1  6  0  0  0
  9 15  1  0  0  0  0
 11 12  1  6  0  0  0
 11 17  1  0  0  0  0
 13 14  1  6  0  0  0
 13 19  1  0  0  0  0
 15 16  1  1  0  0  0
 15 20  1  0  0  0  0
 16 34  1  0  0  0  0
 17 18  1  1  0  0  0
 17 22  1  0  0  0  0
 19  2  1  1  0  0  0
 19 24  1  0  0  0  0
 20 21  1  1  0  0  0
 20 26  1  0  0  0  0
 20 33  1  0  0  0  0
 22 23  1  6  0  0  0
 22 28  1  0  0  0  0
 24 25  1  6  0  0  0
 24 30  1  0  0  0  0
 26 27  1  0  0  0  0
 28 29  1  6  0  0  0
 28 32  1  0  0  0  0
 30 31  1  1  0  0  0
M  END
>  <CHROM.1>
178.13780219,-175.02149267,-97.89999932,44.89951007,-50.07739878,-149.22689643
20.11621190,28.72119709,35.32101689,2.19380428,0.78534993,2.99149710

>  <Name>
ligand

>  <RI>
0

>  <Rbt.Current_Directory>
/home/itssahil/PROJECTS/Mol_Feturizer/New_Systems/rnas/4p3s

>  <Rbt.Executable>
rbdock ($Id: //depot/dev/client3/rdock/2013.1/src/exe/rbdock.cxx#4 $)

>  <Rbt.Library>
libRbt.so (2013.1, Build901 2013/11/27)

>  <Rbt.Parameter_File>
/export/apps/rDock/src/rDock_2013.1_src/data/scripts/dock_solv.prm

>  <Rbt.Receptor>
prm/pocket_docking_6.prm

>  <SCORE>
-14.6012

>  <SCORE.INTER>
-10.9641

>  <SCORE.INTER.CONST>
1

>  <SCORE.INTER.POLAR>
0

>  <SCORE.INTER.ROT>
6

>  <SCORE.INTER.SOLV>
19.334

>  <SCORE.INTER.VDW>
-21.354

>  <SCORE.INTER.norm>
-0.322472

>  <SCORE.INTRA>
-3.63712

>  <SCORE.INTRA.DIHEDRAL>
-9.76262

>  <SCORE.INTRA.DIHEDRAL.0>
15.8194

>  <SCORE.INTRA.POLAR>
0

>  <SCORE.INTRA.POLAR.0>
0

>  <SCORE.INTRA.REPUL>
0

>  <SCORE.INTRA.REPUL.0>
0

>  <SCORE.INTRA.SOLV>
0.463797

>  <SCORE.INTRA.SOLV.lig_0>
-71.9159

>  <SCORE.INTRA.VDW>
1.01229

>  <SCORE.INTRA.VDW.0>
-3.53918

>  <SCORE.INTRA.norm>
-0.106974

>  <SCORE.RESTR>
0

>  <SCORE.RESTR.CAVITY>
0

>  <SCORE.RESTR.norm>
0

>  <SCORE.SYSTEM>
0

>  <SCORE.SYSTEM.CONST>
0

>  <SCORE.SYSTEM.DIHEDRAL>
0

>  <SCORE.SYSTEM.SOLV>
0

>  <SCORE.SYSTEM.norm>
0

>  <SCORE.heavy>
34

>  <SCORE.norm>
-0.429447

>  <RMSD>
2.554

$$$$
ligand
 OpenBabel01301917533D
libRbt.so/2013.1/901 2013/11/27
 34 36  0  0  0  0  0  0  0  0999 V2000
   18.4610   26.9822   34.1938 C   0  0  2  0  0  0  0  0  0  0  0  0
   18.9386   26.7863   35.5286 O   0  0  0  0  0  0  0  0  0  0  0  0
   22.0522   28.9390   37.5468 C   0  0  2  0  0  0  0  0  0  0  0  0
   23.3750   29.3620   38.0264 N   0  0  0  0  0  0  0  0  0  0  0  0
   21.0376   31.4719   36.1772 C   0  0  2  0  0  0  0  0  0  0  0  0
   16.9078   26.7208   34.1880 C   0  0  2  0  0  0  0  0  0  0  0  0
   16.2189   27.6314   35.1165 N   0  0  0  0  0  0  0  0  0  0  0  0
   21.8838   27.4147   37.8895 C   0  0  0  0  0  0  0  0  0  0  0  0
   20.9662   32.6464   35.1232 C   0  0  2  0  0  0  0  0  0  0  0  0
   20.5805   32.1463   33.8545 O   0  0  0  0  0  0  0  0  0  0  0  0
   16.6098   25.2397   34.5706 C   0  0  1  0  0  0  0  0  0  0  0  0
   15.1909   24.9964   34.5667 O   0  0  0  0  0  0  0  0  0  0  0  0
   20.4632   26.9688   37.3942 C   0  0  2  0  0  0  0  0  0  0  0  0
   20.2355   25.5240   37.6826 N   0  0  0  0  0  0  0  0  0  0  0  0
   22.3900   33.3155   35.0366 C   0  0  1  0  0  0  0  0  0  0  0  0
   22.4006   34.4027   34.0373 N   0  0  0  0  0  0  0  0  0  0  0  0
   17.3488   24.3195   33.5710 C   0  0  2  0  0  0  0  0  0  0  0  0
   17.0781   22.9528   33.8977 O   0  0  0  0  0  0  0  0  0  0  0  0
   20.3105   27.2053   35.8612 C   0  0  2  0  0  0  0  0  0  0  0  0
   22.7791   33.8672   36.4446 C   0  0  1  0  0  0  0  0  0  0  0  0
   21.8293   34.8607   36.8166 O   0  0  0  0  0  0  0  0  0  0  0  0
   18.9044   24.6385   33.6361 C   0  0  2  0  0  0  0  0  0  0  0  0
   19.1620   26.0579   33.3056 O   0  0  0  0  0  0  0  0  0  0  0  0
   20.5493   28.7080   35.5512 C   0  0  2  0  0  0  0  0  0  0  0  0
   20.4351   28.8912   34.1415 O   0  0  0  0  0  0  0  0  0  0  0  0
   22.7513   32.6913   37.4731 C   0  0  0  0  0  0  0  0  0  0  0  0
   21.4291   32.0209   37.4903 O   0  0  0  0  0  0  0  0  0  0  0  0
   19.7376   23.7620   32.6574 C   0  0  2  0  0  0  0  0  0  0  0  0
   21.1289   24.0516   32.8325 O   0  0  0  0  0  0  0  0  0  0  0  0
   21.9659   29.1664   35.9774 C   0  0  1  0  0  0  0  0  0  0  0  0
   22.0861   30.5834   35.6739 O   0  0  0  0  0  0  0  0  0  0  0  0
   19.3868   24.0301   31.2105 C   0  0  0  0  0  0  0  0  0  0  0  0
   24.1634   34.5173   36.4482 C   0  0  0  0  0  0  0  0  0  0  0  0
   23.2507   33.9580   32.9058 C   0  0  0  0  0  0  0  0  0  0  0  0
  1  2  1  1  0  0  0
  1  6  1  0  0  0  0
  1 23  1  0  0  0  0
  3  4  1  6  0  0  0
  3  8  1  0  0  0  0
  3 30  1  0  0  0  0
  5  9  1  0  0  0  0
  5 27  1  0  0  0  0
  5 31  1  6  0  0  0
  6  7  1  1  0  0  0
  6 11  1  0  0  0  0
  8 13  1  0  0  0  0
  9 10  1  6  0  0  0
  9 15  1  0  0  0  0
 11 12  1  6  0  0  0
 11 17  1  0  0  0  0
 13 14  1  6  0  0  0
 13 19  1  0  0  0  0
 15 16  1  6  0  0  0
 15 20  1  0  0  0  0
 16 34  1  0  0  0  0
 17 18  1  1  0  0  0
 17 22  1  0  0  0  0
 19  2  1  1  0  0  0
 19 24  1  0  0  0  0
 20 21  1  1  0  0  0
 20 26  1  0  0  0  0
 20 33  1  0  0  0  0
 22 23  1  6  0  0  0
 22 28  1  0  0  0  0
 24 25  1  6  0  0  0
 24 30  1  0  0  0  0
 26 27  1  0  0  0  0
 28 29  1  6  0  0  0
 28 32  1  0  0  0  0
 30 31  1  1  0  0  0
M  END
>  <CHROM.1>
-168.94215867,175.28187681,-111.42801668,-176.58746451,-63.58130733,-149.93315160
20.34694906,28.73112541,35.17180131,2.55165188,0.99348213,2.47921208

>  <Name>
ligand

>  <RI>
0

>  <Rbt.Current_Directory>
/home/itssahil/PROJECTS/Mol_Feturizer/New_Systems/rnas/4p3s

>  <Rbt.Executable>
rbdock ($Id: //depot/dev/client3/rdock/2013.1/src/exe/rbdock.cxx#4 $)

>  <Rbt.Library>
libRbt.so (2013.1, Build901 2013/11/27)

>  <Rbt.Parameter_File>
/export/apps/rDock/src/rDock_2013.1_src/data/scripts/dock_solv.prm

>  <Rbt.Receptor>
prm/pocket_docking_6.prm

>  <SCORE>
-15.4456

>  <SCORE.INTER>
-11.655

>  <SCORE.INTER.CONST>
1

>  <SCORE.INTER.POLAR>
0

>  <SCORE.INTER.ROT>
6

>  <SCORE.INTER.SOLV>
20.5326

>  <SCORE.INTER.VDW>
-22.2142

>  <SCORE.INTER.norm>
-0.342795

>  <SCORE.INTRA>
-3.79051

>  <SCORE.INTRA.DIHEDRAL>
-10.1674

>  <SCORE.INTRA.DIHEDRAL.0>
15.8194

>  <SCORE.INTRA.POLAR>
0

>  <SCORE.INTRA.POLAR.0>
0

>  <SCORE.INTRA.REPUL>
0

>  <SCORE.INTRA.REPUL.0>
0

>  <SCORE.INTRA.SOLV>
-0.419438

>  <SCORE.INTRA.SOLV.lig_0>
-71.9159

>  <SCORE.INTRA.VDW>
1.50289

>  <SCORE.INTRA.VDW.0>
-3.53918

>  <SCORE.INTRA.norm>
-0.111486

>  <SCORE.RESTR>
0

>  <SCORE.RESTR.CAVITY>
0

>  <SCORE.RESTR.norm>
0

>  <SCORE.SYSTEM>
0

>  <SCORE.SYSTEM.CONST>
0

>  <SCORE.SYSTEM.DIHEDRAL>
0

>  <SCORE.SYSTEM.SOLV>
0

>  <SCORE.SYSTEM.norm>
0

>  <SCORE.heavy>
34

>  <SCORE.norm>
-0.454281

>  <RMSD>
2.586

$$$$
ligand
 OpenBabel01301917533D
libRbt.so/2013.1/901 2013/11/27
 34 36  0  0  0  0  0  0  0  0999 V2000
   17.2385   27.7662   35.0467 C   0  0  2  0  0  0  0  0  0  0  0  0
   17.7220   27.3752   36.3357 O   0  0  0  0  0  0  0  0  0  0  0  0
   18.5709   31.3155   37.8038 C   0  0  2  0  0  0  0  0  0  0  0  0
   18.9901   32.4233   38.6732 N   0  0  0  0  0  0  0  0  0  0  0  0
   22.1449   30.7033   36.5220 C   0  0  2  0  0  0  0  0  0  0  0  0
   15.8101   27.1330   34.8487 C   0  0  2  0  0  0  0  0  0  0  0  0
   14.8852   27.5847   35.9006 N   0  0  0  0  0  0  0  0  0  0  0  0
   17.5211   30.4560   38.5965 C   0  0  0  0  0  0  0  0  0  0  0  0
   22.8323   30.9838   37.9163 C   0  0  2  0  0  0  0  0  0  0  0  0
   22.1660   30.2728   38.9455 O   0  0  0  0  0  0  0  0  0  0  0  0
   15.9058   25.5774   34.8517 C   0  0  1  0  0  0  0  0  0  0  0  0
   14.6020   24.9943   34.6711 O   0  0  0  0  0  0  0  0  0  0  0  0
   17.0596   29.2844   37.6601 C   0  0  2  0  0  0  0  0  0  0  0  0
   16.0621   28.4197   38.3527 N   0  0  0  0  0  0  0  0  0  0  0  0
   22.7673   32.5335   38.1928 C   0  0  1  0  0  0  0  0  0  0  0  0
   23.3635   32.8596   39.5039 N   0  0  0  0  0  0  0  0  0  0  0  0
   16.8829   25.1467   33.7329 C   0  0  2  0  0  0  0  0  0  0  0  0
   16.9760   23.7188   33.7105 O   0  0  0  0  0  0  0  0  0  0  0  0
   18.2735   28.4062   37.2307 C   0  0  2  0  0  0  0  0  0  0  0  0
   23.5205   33.2859   37.0506 C   0  0  1  0  0  0  0  0  0  0  0  0
   24.8841   32.8762   37.0649 O   0  0  0  0  0  0  0  0  0  0  0  0
   18.2973   25.8200   34.0020 C   0  0  2  0  0  0  0  0  0  0  0  0
   18.1778   27.2948   34.0318 O   0  0  0  0  0  0  0  0  0  0  0  0
   19.3197   29.3000   36.5108 C   0  0  2  0  0  0  0  0  0  0  0  0
   20.4316   28.4801   36.1571 O   0  0  0  0  0  0  0  0  0  0  0  0
   22.8657   32.9119   35.6821 C   0  0  0  0  0  0  0  0  0  0  0  0
   22.8644   31.4448   35.4679 O   0  0  0  0  0  0  0  0  0  0  0  0
   19.3533   25.4486   32.9216 C   0  0  2  0  0  0  0  0  0  0  0  0
   18.7610   25.5656   31.6232 O   0  0  0  0  0  0  0  0  0  0  0  0
   19.8379   30.4343   37.4291 C   0  0  1  0  0  0  0  0  0  0  0  0
   20.7863   31.2285   36.6646 O   0  0  0  0  0  0  0  0  0  0  0  0
   19.8543   24.0296   33.0764 C   0  0  0  0  0  0  0  0  0  0  0  0
   23.4850   34.8035   37.2368 C   0  0  0  0  0  0  0  0  0  0  0  0
   22.3225   33.5467   40.3070 C   0  0  0  0  0  0  0  0  0  0  0  0
  1  2  1  1  0  0  0
  1  6  1  0  0  0  0
  1 23  1  0  0  0  0
  3  4  1  1  0  0  0
  3  8  1  0  0  0  0
  3 30  1  0  0  0  0
  5  9  1  0  0  0  0
  5 27  1  0  0  0  0
  5 31  1  1  0  0  0
  6  7  1  1  0  0  0
  6 11  1  0  0  0  0
  8 13  1  0  0  0  0
  9 10  1  1  0  0  0
  9 15  1  0  0  0  0
 11 12  1  6  0  0  0
 11 17  1  0  0  0  0
 13 14  1  1  0  0  0
 13 19  1  0  0  0  0
 15 16  1  1  0  0  0
 15 20  1  0  0  0  0
 16 34  1  0  0  0  0
 17 18  1  1  0  0  0
 17 22  1  0  0  0  0
 19  2  1  6  0  0  0
 19 24  1  0  0  0  0
 20 21  1  6  0  0  0
 20 26  1  0  0  0  0
 20 33  1  0  0  0  0
 22 23  1  6  0  0  0
 22 28  1  0  0  0  0
 24 25  1  1  0  0  0
 24 30  1  0  0  0  0
 26 27  1  0  0  0  0
 28 29  1  6  0  0  0
 28 32  1  0  0  0  0
 30 31  1  6  0  0  0
M  END
>  <CHROM.1>
-131.16363651,69.20361938,-122.03094128,45.19925194,164.89754164,-76.50318331
19.57072429,29.19381546,36.25965008,2.25911622,-0.38367934,-2.36390505

>  <Name>
ligand

>  <RI>
0

>  <Rbt.Current_Directory>
/home/itssahil/PROJECTS/Mol_Feturizer/New_Systems/rnas/4p3s

>  <Rbt.Executable>
rbdock ($Id: //depot/dev/client3/rdock/2013.1/src/exe/rbdock.cxx#4 $)

>  <Rbt.Library>
libRbt.so (2013.1, Build901 2013/11/27)

>  <Rbt.Parameter_File>
/export/apps/rDock/src/rDock_2013.1_src/data/scripts/dock_solv.prm

>  <Rbt.Receptor>
prm/pocket_docking_4.prm

>  <SCORE>
-11.5191

>  <SCORE.INTER>
-11.917

>  <SCORE.INTER.CONST>
1

>  <SCORE.INTER.POLAR>
0

>  <SCORE.INTER.ROT>
6

>  <SCORE.INTER.SOLV>
15.2087

>  <SCORE.INTER.VDW>
-20.6142

>  <SCORE.INTER.norm>
-0.350499

>  <SCORE.INTRA>
0.397897

>  <SCORE.INTRA.DIHEDRAL>
-4.45504

>  <SCORE.INTRA.DIHEDRAL.0>
15.8194

>  <SCORE.INTRA.POLAR>
0

>  <SCORE.INTRA.POLAR.0>
0

>  <SCORE.INTRA.REPUL>
0

>  <SCORE.INTRA.REPUL.0>
0

>  <SCORE.INTRA.SOLV>
3.55356

>  <SCORE.INTRA.SOLV.lig_0>
-71.9159

>  <SCORE.INTRA.VDW>
0.848636

>  <SCORE.INTRA.VDW.0>
-3.53918

>  <SCORE.INTRA.norm>
0.0117029

>  <SCORE.RESTR>
0

>  <SCORE.RESTR.CAVITY>
0

>  <SCORE.RESTR.norm>
0

>  <SCORE.SYSTEM>
0

>  <SCORE.SYSTEM.CONST>
0

>  <SCORE.SYSTEM.DIHEDRAL>
0

>  <SCORE.SYSTEM.SOLV>
0

>  <SCORE.SYSTEM.norm>
0

>  <SCORE.heavy>
34

>  <SCORE.norm>
-0.338796

>  <RMSD>
2.617

$$$$
ligand
 OpenBabel01301917533D
libRbt.so/2013.1/901 2013/11/27
 34 36  0  0  0  0  0  0  0  0999 V2000
   17.3855   29.3016   36.4433 C   0  0  2  0  0  0  0  0  0  0  0  0
   17.5807   28.9446   37.8154 O   0  0  0  0  0  0  0  0  0  0  0  0
   20.6875   30.2185   40.4849 C   0  0  2  0  0  0  0  0  0  0  0  0
   21.9709   30.3096   41.1943 N   0  0  0  0  0  0  0  0  0  0  0  0
   22.7832   32.2184   39.0304 C   0  0  2  0  0  0  0  0  0  0  0  0
   15.8534   29.5976   36.2293 C   0  0  2  0  0  0  0  0  0  0  0  0
   15.4010   30.6862   37.1104 N   0  0  0  0  0  0  0  0  0  0  0  0
   20.1626   28.7448   40.6326 C   0  0  0  0  0  0  0  0  0  0  0  0
   22.9241   33.7858   38.8925 C   0  0  2  0  0  0  0  0  0  0  0  0
   22.1809   34.4380   39.9077 O   0  0  0  0  0  0  0  0  0  0  0  0
   15.0146   28.3110   36.4937 C   0  0  1  0  0  0  0  0  0  0  0  0
   13.6132   28.5772   36.2993 O   0  0  0  0  0  0  0  0  0  0  0  0
   18.7827   28.6536   39.8911 C   0  0  2  0  0  0  0  0  0  0  0  0
   18.2254   27.2741   39.9854 N   0  0  0  0  0  0  0  0  0  0  0  0
   22.3897   34.2035   37.4704 C   0  0  1  0  0  0  0  0  0  0  0  0
   22.4603   35.6676   37.2909 N   0  0  0  0  0  0  0  0  0  0  0  0
   15.5198   27.1964   35.5479 C   0  0  2  0  0  0  0  0  0  0  0  0
   14.7533   26.0078   35.7663 O   0  0  0  0  0  0  0  0  0  0  0  0
   18.9349   29.0323   38.3869 C   0  0  2  0  0  0  0  0  0  0  0  0
   23.2365   33.4799   36.3761 C   0  0  1  0  0  0  0  0  0  0  0  0
   24.5894   33.9066   36.4991 O   0  0  0  0  0  0  0  0  0  0  0  0
   17.0660   26.9533   35.8240 C   0  0  2  0  0  0  0  0  0  0  0  0
   17.8389   28.1958   35.6029 O   0  0  0  0  0  0  0  0  0  0  0  0
   19.5181   30.4674   38.2792 C   0  0  2  0  0  0  0  0  0  0  0  0
   19.6766   30.7766   36.8961 O   0  0  0  0  0  0  0  0  0  0  0  0
   23.1414   31.9368   36.6023 C   0  0  0  0  0  0  0  0  0  0  0  0
   23.5752   31.5645   37.9703 O   0  0  0  0  0  0  0  0  0  0  0  0
   17.6708   25.8467   34.9130 C   0  0  2  0  0  0  0  0  0  0  0  0
   19.0488   25.6570   35.2527 O   0  0  0  0  0  0  0  0  0  0  0  0
   20.9080   30.5768   38.9535 C   0  0  1  0  0  0  0  0  0  0  0  0
   21.3584   31.9535   38.8257 O   0  0  0  0  0  0  0  0  0  0  0  0
   17.6010   26.2124   33.4467 C   0  0  0  0  0  0  0  0  0  0  0  0
   22.7645   33.8196   34.9617 C   0  0  0  0  0  0  0  0  0  0  0  0
   21.0888   36.1449   36.9877 C   0  0  0  0  0  0  0  0  0  0  0  0
  1  2  1  1  0  0  0
  1  6  1  0  0  0  0
  1 23  1  0  0  0  0
  3  4  1  1  0  0  0
  3  8  1  0  0  0  0
  3 30  1  0  0  0  0
  5  9  1  0  0  0  0
  5 27  1  0  0  0  0
  5 31  1  6  0  0  0
  6  7  1  1  0  0  0
  6 11  1  0  0  0  0
  8 13  1  0  0  0  0
  9 10  1  1  0  0  0
  9 15  1  0  0  0  0
 11 12  1  6  0  0  0
 11 17  1  0  0  0  0
 13 14  1  6  0  0  0
 13 19  1  0  0  0  0
 15 16  1  6  0  0  0
 15 20  1  0  0  0  0
 16 34  1  0  0  0  0
 17 18  1  1  0  0  0
 17 22  1  0  0  0  0
 19  2  1  1  0  0  0
 19 24  1  0  0  0  0
 20 21  1  1  0  0  0
 20 26  1  0  0  0  0
 20 33  1  0  0  0  0
 22 23  1  6  0  0  0
 22 28  1  0  0  0  0
 24 25  1  6  0  0  0
 24 30  1  0  0  0  0
 26 27  1  0  0  0  0
 28 29  1  1  0  0  0
 28 32  1  0  0  0  0
 30 31  1  1  0  0  0
M  END
>  <CHROM.1>
-160.84518880,177.08031637,-122.32507857,-178.06891878,82.00775785,-177.39510497
19.58165830,30.31516890,37.38942153,3.01158896,0.78141859,2.03787136

>  <Name>
ligand

>  <RI>
0

>  <Rbt.Current_Directory>
/home/itssahil/PROJECTS/Mol_Feturizer/New_Systems/rnas/4p3s

>  <Rbt.Executable>
rbdock ($Id: //depot/dev/client3/rdock/2013.1/src/exe/rbdock.cxx#4 $)

>  <Rbt.Library>
libRbt.so (2013.1, Build901 2013/11/27)

>  <Rbt.Parameter_File>
/export/apps/rDock/src/rDock_2013.1_src/data/scripts/dock_solv.prm

>  <Rbt.Receptor>
prm/pocket_docking_6.prm

>  <SCORE>
-13.2638

>  <SCORE.INTER>
-8.26843

>  <SCORE.INTER.CONST>
1

>  <SCORE.INTER.POLAR>
0

>  <SCORE.INTER.ROT>
6

>  <SCORE.INTER.SOLV>
13.5737

>  <SCORE.INTER.VDW>
-17.6369

>  <SCORE.INTER.norm>
-0.243189

>  <SCORE.INTRA>
-4.99539

>  <SCORE.INTRA.DIHEDRAL>
-10.6552

>  <SCORE.INTRA.DIHEDRAL.0>
15.8194

>  <SCORE.INTRA.POLAR>
0

>  <SCORE.INTRA.POLAR.0>
0

>  <SCORE.INTRA.REPUL>
0

>  <SCORE.INTRA.REPUL.0>
0

>  <SCORE.INTRA.SOLV>
-1.232

>  <SCORE.INTRA.SOLV.lig_0>
-71.9159

>  <SCORE.INTRA.VDW>
0.948193

>  <SCORE.INTRA.VDW.0>
-3.53918

>  <SCORE.INTRA.norm>
-0.146923

>  <SCORE.RESTR>
0

>  <SCORE.RESTR.CAVITY>
0

>  <SCORE.RESTR.norm>
0

>  <SCORE.SYSTEM>
0

>  <SCORE.SYSTEM.CONST>
0

>  <SCORE.SYSTEM.DIHEDRAL>
0

>  <SCORE.SYSTEM.SOLV>
0

>  <SCORE.SYSTEM.norm>
0

>  <SCORE.heavy>
34

>  <SCORE.norm>
-0.390113

>  <RMSD>
2.620

$$$$
ligand
 OpenBabel01301917533D
libRbt.so/2013.1/901 2013/11/27
 34 36  0  0  0  0  0  0  0  0999 V2000
   17.3830   29.4025   36.4338 C   0  0  2  0  0  0  0  0  0  0  0  0
   17.5860   29.0705   37.8111 O   0  0  0  0  0  0  0  0  0  0  0  0
   20.7960   30.1797   40.4318 C   0  0  2  0  0  0  0  0  0  0  0  0
   22.0967   30.2095   41.1143 N   0  0  0  0  0  0  0  0  0  0  0  0
   22.9015   32.1480   39.1309 C   0  0  2  0  0  0  0  0  0  0  0  0
   15.8453   29.6650   36.2166 C   0  0  2  0  0  0  0  0  0  0  0  0
   15.3720   30.7578   37.0814 N   0  0  0  0  0  0  0  0  0  0  0  0
   20.2173   28.7251   40.5678 C   0  0  0  0  0  0  0  0  0  0  0  0
   23.0923   33.7108   39.0011 C   0  0  2  0  0  0  0  0  0  0  0  0
   22.2666   34.3866   39.9338 O   0  0  0  0  0  0  0  0  0  0  0  0
   15.0321   28.3663   36.5015 C   0  0  1  0  0  0  0  0  0  0  0  0
   13.6257   28.6018   36.3044 O   0  0  0  0  0  0  0  0  0  0  0  0
   18.8195   28.6994   39.8553 C   0  0  2  0  0  0  0  0  0  0  0  0
   18.2110   27.3410   39.9402 N   0  0  0  0  0  0  0  0  0  0  0  0
   22.7129   34.1312   37.5309 C   0  0  1  0  0  0  0  0  0  0  0  0
   22.8355   35.5921   37.3531 N   0  0  0  0  0  0  0  0  0  0  0  0
   15.5586   27.2475   35.5725 C   0  0  2  0  0  0  0  0  0  0  0  0
   14.8159   26.0475   35.8098 O   0  0  0  0  0  0  0  0  0  0  0  0
   18.9544   29.0965   38.3542 C   0  0  2  0  0  0  0  0  0  0  0  0
   23.6479   33.3812   36.5301 C   0  0  1  0  0  0  0  0  0  0  0  0
   24.9912   33.7776   36.7863 O   0  0  0  0  0  0  0  0  0  0  0  0
   17.1095   27.0391   35.8510 C   0  0  2  0  0  0  0  0  0  0  0  0
   17.8576   28.2931   35.6102 O   0  0  0  0  0  0  0  0  0  0  0  0
   19.5907   30.5097   38.2562 C   0  0  2  0  0  0  0  0  0  0  0  0
   19.7317   30.8352   36.8749 O   0  0  0  0  0  0  0  0  0  0  0  0
   23.4944   31.8422   36.7523 C   0  0  0  0  0  0  0  0  0  0  0  0
   23.7802   31.4691   38.1584 O   0  0  0  0  0  0  0  0  0  0  0  0
   17.7355   25.9308   34.9566 C   0  0  2  0  0  0  0  0  0  0  0  0
   19.1237   25.7925   35.2790 O   0  0  0  0  0  0  0  0  0  0  0  0
   20.9977   30.5542   38.9016 C   0  0  1  0  0  0  0  0  0  0  0  0
   21.4986   31.9145   38.7856 O   0  0  0  0  0  0  0  0  0  0  0  0
   17.6323   26.2593   33.4835 C   0  0  0  0  0  0  0  0  0  0  0  0
   23.3280   33.7222   35.0740 C   0  0  0  0  0  0  0  0  0  0  0  0
   21.5179   36.0961   36.8940 C   0  0  0  0  0  0  0  0  0  0  0  0
  1  2  1  1  0  0  0
  1  6  1  0  0  0  0
  1 23  1  0  0  0  0
  3  4  1  1  0  0  0
  3  8  1  0  0  0  0
  3 30  1  0  0  0  0
  5  9  1  0  0  0  0
  5 27  1  0  0  0  0
  5 31  1  6  0  0  0
  6  7  1  1  0  0  0
  6 11  1  0  0  0  0
  8 13  1  0  0  0  0
  9 10  1  1  0  0  0
  9 15  1  0  0  0  0
 11 12  1  6  0  0  0
 11 17  1  0  0  0  0
 13 14  1  6  0  0  0
 13 19  1  0  0  0  0
 15 16  1  1  0  0  0
 15 20  1  0  0  0  0
 16 34  1  0  0  0  0
 17 18  1  1  0  0  0
 17 22  1  0  0  0  0
 19  2  1  1  0  0  0
 19 24  1  0  0  0  0
 20 21  1  1  0  0  0
 20 26  1  0  0  0  0
 20 33  1  0  0  0  0
 22 23  1  6  0  0  0
 22 28  1  0  0  0  0
 24 25  1  6  0  0  0
 24 30  1  0  0  0  0
 26 27  1  0  0  0  0
 28 29  1  1  0  0  0
 28 32  1  0  0  0  0
 30 31  1  1  0  0  0
M  END
>  <CHROM.1>
-165.36762685,179.70375200,-123.07973827,-179.23746950,74.34835699,-176.07703180
19.71330841,30.31930872,37.41606923,3.04182844,0.74807455,2.01118145

>  <Name>
ligand

>  <RI>
0

>  <Rbt.Current_Directory>
/home/itssahil/PROJECTS/Mol_Feturizer/New_Systems/rnas/4p3s

>  <Rbt.Executable>
rbdock ($Id: //depot/dev/client3/rdock/2013.1/src/exe/rbdock.cxx#4 $)

>  <Rbt.Library>
libRbt.so (2013.1, Build901 2013/11/27)

>  <Rbt.Parameter_File>
/export/apps/rDock/src/rDock_2013.1_src/data/scripts/dock_solv.prm

>  <Rbt.Receptor>
prm/pocket_docking_5.prm

>  <SCORE>
-14.6785

>  <SCORE.INTER>
-8.94889

>  <SCORE.INTER.CONST>
1

>  <SCORE.INTER.POLAR>
0

>  <SCORE.INTER.ROT>
6

>  <SCORE.INTER.SOLV>
14.5368

>  <SCORE.INTER.VDW>
-18.4115

>  <SCORE.INTER.norm>
-0.263203

>  <SCORE.INTRA>
-5.72956

>  <SCORE.INTRA.DIHEDRAL>
-12.4745

>  <SCORE.INTRA.DIHEDRAL.0>
15.8194

>  <SCORE.INTRA.POLAR>
0

>  <SCORE.INTRA.POLAR.0>
0

>  <SCORE.INTRA.REPUL>
0

>  <SCORE.INTRA.REPUL.0>
0

>  <SCORE.INTRA.SOLV>
-1.10233

>  <SCORE.INTRA.SOLV.lig_0>
-71.9159

>  <SCORE.INTRA.VDW>
1.05885

>  <SCORE.INTRA.VDW.0>
-3.53918

>  <SCORE.INTRA.norm>
-0.168517

>  <SCORE.RESTR>
0

>  <SCORE.RESTR.CAVITY>
0

>  <SCORE.RESTR.norm>
0

>  <SCORE.SYSTEM>
0

>  <SCORE.SYSTEM.CONST>
0

>  <SCORE.SYSTEM.DIHEDRAL>
0

>  <SCORE.SYSTEM.SOLV>
0

>  <SCORE.SYSTEM.norm>
0

>  <SCORE.heavy>
34

>  <SCORE.norm>
-0.431719

>  <RMSD>
2.631

$$$$
ligand
 OpenBabel01301917533D
libRbt.so/2013.1/901 2013/11/27
 34 36  0  0  0  0  0  0  0  0999 V2000
   20.0750   27.0358   35.3895 C   0  0  2  0  0  0  0  0  0  0  0  0
   20.1901   27.5306   36.7275 O   0  0  0  0  0  0  0  0  0  0  0  0
   23.1575   28.8794   39.5163 C   0  0  2  0  0  0  0  0  0  0  0  0
   24.4434   29.2729   40.1081 N   0  0  0  0  0  0  0  0  0  0  0  0
   23.7669   32.0596   39.1555 C   0  0  2  0  0  0  0  0  0  0  0  0
   19.9716   28.2722   34.4193 C   0  0  2  0  0  0  0  0  0  0  0  0
   21.1552   29.1380   34.5444 N   0  0  0  0  0  0  0  0  0  0  0  0
   23.3287   27.4380   38.9146 C   0  0  0  0  0  0  0  0  0  0  0  0
   23.2273   33.5438   39.1931 C   0  0  2  0  0  0  0  0  0  0  0  0
   22.3456   33.7193   40.2887 O   0  0  0  0  0  0  0  0  0  0  0  0
   18.6778   29.0870   34.7215 C   0  0  1  0  0  0  0  0  0  0  0  0
   18.5795   30.2183   33.8369 O   0  0  0  0  0  0  0  0  0  0  0  0
   21.9496   27.0109   38.2999 C   0  0  2  0  0  0  0  0  0  0  0  0
   22.0398   25.6482   37.7022 N   0  0  0  0  0  0  0  0  0  0  0  0
   22.4767   33.8277   37.8373 C   0  0  1  0  0  0  0  0  0  0  0  0
   21.9142   35.1931   37.8231 N   0  0  0  0  0  0  0  0  0  0  0  0
   17.4617   28.1425   34.5766 C   0  0  2  0  0  0  0  0  0  0  0  0
   16.2605   28.8750   34.8385 O   0  0  0  0  0  0  0  0  0  0  0  0
   21.4994   28.0149   37.1959 C   0  0  2  0  0  0  0  0  0  0  0  0
   23.4771   33.6394   36.6531 C   0  0  1  0  0  0  0  0  0  0  0  0
   24.5304   34.5862   36.7992 O   0  0  0  0  0  0  0  0  0  0  0  0
   17.6357   26.9263   35.5849 C   0  0  2  0  0  0  0  0  0  0  0  0
   18.8876   26.1887   35.3044 O   0  0  0  0  0  0  0  0  0  0  0  0
   21.4058   29.4384   37.8093 C   0  0  2  0  0  0  0  0  0  0  0  0
   21.0235   30.3409   36.7733 O   0  0  0  0  0  0  0  0  0  0  0  0
   24.0537   32.1881   36.7052 C   0  0  0  0  0  0  0  0  0  0  0  0
   24.6906   31.9074   38.0143 O   0  0  0  0  0  0  0  0  0  0  0  0
   16.4578   25.9126   35.5104 C   0  0  2  0  0  0  0  0  0  0  0  0
   16.3682   25.3905   34.1802 O   0  0  0  0  0  0  0  0  0  0  0  0
   22.7672   29.9128   38.3752 C   0  0  1  0  0  0  0  0  0  0  0  0
   22.5753   31.2356   38.9480 O   0  0  0  0  0  0  0  0  0  0  0  0
   15.1298   26.5542   35.8471 C   0  0  0  0  0  0  0  0  0  0  0  0
   22.8163   33.8788   35.2948 C   0  0  0  0  0  0  0  0  0  0  0  0
   20.4408   35.0679   37.9424 C   0  0  0  0  0  0  0  0  0  0  0  0
  1  2  1  1  0  0  0
  1  6  1  0  0  0  0
  1 23  1  0  0  0  0
  3  4  1  6  0  0  0
  3  8  1  0  0  0  0
  3 30  1  0  0  0  0
  5  9  1  0  0  0  0
  5 27  1  0  0  0  0
  5 31  1  6  0  0  0
  6  7  1  1  0  0  0
  6 11  1  0  0  0  0
  8 13  1  0  0  0  0
  9 10  1  1  0  0  0
  9 15  1  0  0  0  0
 11 12  1  6  0  0  0
 11 17  1  0  0  0  0
 13 14  1  6  0  0  0
 13 19  1  0  0  0  0
 15 16  1  1  0  0  0
 15 20  1  0  0  0  0
 16 34  1  0  0  0  0
 17 18  1  1  0  0  0
 17 22  1  0  0  0  0
 19  2  1  1  0  0  0
 19 24  1  0  0  0  0
 20 21  1  1  0  0  0
 20 26  1  0  0  0  0
 20 33  1  0  0  0  0
 22 23  1  6  0  0  0
 22 28  1  0  0  0  0
 24 25  1  6  0  0  0
 24 30  1  0  0  0  0
 26 27  1  0  0  0  0
 28 29  1  6  0  0  0
 28 32  1  0  0  0  0
 30 31  1  1  0  0  0
M  END
>  <CHROM.1>
-79.38536740,-113.20473503,-108.43929902,59.34862418,83.60845034,157.30601201
20.99112967,29.90730463,36.88877525,-2.45602342,-0.61735198,-0.16601066

>  <Name>
ligand

>  <RI>
0

>  <Rbt.Current_Directory>
/home/itssahil/PROJECTS/Mol_Feturizer/New_Systems/rnas/4p3s

>  <Rbt.Executable>
rbdock ($Id: //depot/dev/client3/rdock/2013.1/src/exe/rbdock.cxx#4 $)

>  <Rbt.Library>
libRbt.so (2013.1, Build901 2013/11/27)

>  <Rbt.Parameter_File>
/export/apps/rDock/src/rDock_2013.1_src/data/scripts/dock_solv.prm

>  <Rbt.Receptor>
prm/pocket_docking_2.prm

>  <SCORE>
-5.27596

>  <SCORE.INTER>
-8.66918

>  <SCORE.INTER.CONST>
1

>  <SCORE.INTER.POLAR>
0

>  <SCORE.INTER.ROT>
6

>  <SCORE.INTER.SOLV>
18.1876

>  <SCORE.INTER.VDW>
-19.442

>  <SCORE.INTER.norm>
-0.254976

>  <SCORE.INTRA>
2.32955

>  <SCORE.INTRA.DIHEDRAL>
-1.33263

>  <SCORE.INTRA.DIHEDRAL.0>
15.8194

>  <SCORE.INTRA.POLAR>
0

>  <SCORE.INTRA.POLAR.0>
0

>  <SCORE.INTRA.REPUL>
0

>  <SCORE.INTRA.REPUL.0>
0

>  <SCORE.INTRA.SOLV>
3.01278

>  <SCORE.INTRA.SOLV.lig_0>
-71.9159

>  <SCORE.INTRA.VDW>
1.48947

>  <SCORE.INTRA.VDW.0>
-3.53918

>  <SCORE.INTRA.norm>
0.0685161

>  <SCORE.RESTR>
1.06367

>  <SCORE.RESTR.CAVITY>
1.06367

>  <SCORE.RESTR.norm>
0.0312844

>  <SCORE.SYSTEM>
0

>  <SCORE.SYSTEM.CONST>
0

>  <SCORE.SYSTEM.DIHEDRAL>
0

>  <SCORE.SYSTEM.SOLV>
0

>  <SCORE.SYSTEM.norm>
0

>  <SCORE.heavy>
34

>  <SCORE.norm>
-0.155175

>  <RMSD>
2.679

$$$$
ligand
 OpenBabel01301917533D
libRbt.so/2013.1/901 2013/11/27
 34 36  0  0  0  0  0  0  0  0999 V2000
   20.0304   27.3106   35.3831 C   0  0  2  0  0  0  0  0  0  0  0  0
   20.1290   27.8400   36.7091 O   0  0  0  0  0  0  0  0  0  0  0  0
   23.0697   29.1456   39.5463 C   0  0  2  0  0  0  0  0  0  0  0  0
   24.3541   29.4976   40.1668 N   0  0  0  0  0  0  0  0  0  0  0  0
   23.8451   32.2943   39.0449 C   0  0  2  0  0  0  0  0  0  0  0  0
   20.0341   28.5196   34.3736 C   0  0  2  0  0  0  0  0  0  0  0  0
   21.2622   29.3181   34.5155 N   0  0  0  0  0  0  0  0  0  0  0  0
   23.1876   27.6759   39.0028 C   0  0  0  0  0  0  0  0  0  0  0  0
   23.3660   33.7971   38.9592 C   0  0  2  0  0  0  0  0  0  0  0  0
   22.4724   34.0901   40.0194 O   0  0  0  0  0  0  0  0  0  0  0  0
   18.7816   29.4178   34.6048 C   0  0  1  0  0  0  0  0  0  0  0  0
   18.7811   30.5244   33.6840 O   0  0  0  0  0  0  0  0  0  0  0  0
   21.8091   27.2941   38.3576 C   0  0  2  0  0  0  0  0  0  0  0  0
   21.8500   25.9072   37.8125 N   0  0  0  0  0  0  0  0  0  0  0  0
   22.6526   34.0064   37.5701 C   0  0  1  0  0  0  0  0  0  0  0  0
   22.1467   35.3878   37.4412 N   0  0  0  0  0  0  0  0  0  0  0  0
   17.5170   28.5420   34.4443 C   0  0  2  0  0  0  0  0  0  0  0  0
   16.3534   29.3514   34.6409 O   0  0  0  0  0  0  0  0  0  0  0  0
   21.4453   28.2769   37.2038 C   0  0  2  0  0  0  0  0  0  0  0  0
   23.6658   33.6893   36.4251 C   0  0  1  0  0  0  0  0  0  0  0  0
   24.7541   34.6023   36.5218 O   0  0  0  0  0  0  0  0  0  0  0  0
   17.5837   27.3503   35.4938 C   0  0  2  0  0  0  0  0  0  0  0  0
   18.7983   26.5322   35.2805 O   0  0  0  0  0  0  0  0  0  0  0  0
   21.4037   29.7253   37.7623 C   0  0  2  0  0  0  0  0  0  0  0  0
   21.1004   30.6059   36.6824 O   0  0  0  0  0  0  0  0  0  0  0  0
   24.1815   32.2246   36.5985 C   0  0  0  0  0  0  0  0  0  0  0  0
   24.7824   32.0194   37.9383 O   0  0  0  0  0  0  0  0  0  0  0  0
   16.3507   26.4054   35.4071 C   0  0  2  0  0  0  0  0  0  0  0  0
   16.1836   25.9711   34.0530 O   0  0  0  0  0  0  0  0  0  0  0  0
   22.7683   30.1533   38.3564 C   0  0  1  0  0  0  0  0  0  0  0  0
   22.6247   31.5044   38.8747 O   0  0  0  0  0  0  0  0  0  0  0  0
   15.0728   27.0931   35.8345 C   0  0  0  0  0  0  0  0  0  0  0  0
   23.0403   33.8506   35.0388 C   0  0  0  0  0  0  0  0  0  0  0  0
   20.6684   35.3320   37.5525 C   0  0  0  0  0  0  0  0  0  0  0  0
  1  2  1  1  0  0  0
  1  6  1  0  0  0  0
  1 23  1  0  0  0  0
  3  4  1  6  0  0  0
  3  8  1  0  0  0  0
  3 30  1  0  0  0  0
  5  9  1  0  0  0  0
  5 27  1  0  0  0  0
  5 31  1  6  0  0  0
  6  7  1  1  0  0  0
  6 11  1  0  0  0  0
  8 13  1  0  0  0  0
  9 10  1  1  0  0  0
  9 15  1  0  0  0  0
 11 12  1  6  0  0  0
 11 17  1  0  0  0  0
 13 14  1  6  0  0  0
 13 19  1  0  0  0  0
 15 16  1  6  0  0  0
 15 20  1  0  0  0  0
 16 34  1  0  0  0  0
 17 18  1  1  0  0  0
 17 22  1  0  0  0  0
 19  2  1  1  0  0  0
 19 24  1  0  0  0  0
 20 21  1  1  0  0  0
 20 26  1  0  0  0  0
 20 33  1  0  0  0  0
 22 23  1  6  0  0  0
 22 28  1  0  0  0  0
 24 25  1  6  0  0  0
 24 30  1  0  0  0  0
 26 27  1  0  0  0  0
 28 29  1  6  0  0  0
 28 32  1  0  0  0  0
 30 31  1  1  0  0  0
M  END
>  <CHROM.1>
-78.64070978,-113.65006862,-107.85430708,52.62397460,85.86432471,154.90306660
21.03035511,30.17878689,36.78282964,-2.53523303,-0.63668644,-0.25533724

>  <Name>
ligand

>  <RI>
0

>  <Rbt.Current_Directory>
/home/itssahil/PROJECTS/Mol_Feturizer/New_Systems/rnas/4p3s

>  <Rbt.Executable>
rbdock ($Id: //depot/dev/client3/rdock/2013.1/src/exe/rbdock.cxx#4 $)

>  <Rbt.Library>
libRbt.so (2013.1, Build901 2013/11/27)

>  <Rbt.Parameter_File>
/export/apps/rDock/src/rDock_2013.1_src/data/scripts/dock_solv.prm

>  <Rbt.Receptor>
prm/pocket_docking_4.prm

>  <SCORE>
-7.73457

>  <SCORE.INTER>
-10.0497

>  <SCORE.INTER.CONST>
1

>  <SCORE.INTER.POLAR>
0

>  <SCORE.INTER.ROT>
6

>  <SCORE.INTER.SOLV>
17.6929

>  <SCORE.INTER.VDW>
-20.1974

>  <SCORE.INTER.norm>
-0.295579

>  <SCORE.INTRA>
2.31511

>  <SCORE.INTRA.DIHEDRAL>
-0.419904

>  <SCORE.INTRA.DIHEDRAL.0>
15.8194

>  <SCORE.INTRA.POLAR>
0

>  <SCORE.INTRA.POLAR.0>
0

>  <SCORE.INTRA.REPUL>
0

>  <SCORE.INTRA.REPUL.0>
0

>  <SCORE.INTRA.SOLV>
3.09158

>  <SCORE.INTRA.SOLV.lig_0>
-71.9159

>  <SCORE.INTRA.VDW>
0.97927

>  <SCORE.INTRA.VDW.0>
-3.53918

>  <SCORE.INTRA.norm>
0.0680915

>  <SCORE.RESTR>
0

>  <SCORE.RESTR.CAVITY>
0

>  <SCORE.RESTR.norm>
0

>  <SCORE.SYSTEM>
0

>  <SCORE.SYSTEM.CONST>
0

>  <SCORE.SYSTEM.DIHEDRAL>
0

>  <SCORE.SYSTEM.SOLV>
0

>  <SCORE.SYSTEM.norm>
0

>  <SCORE.heavy>
34

>  <SCORE.norm>
-0.227487

>  <RMSD>
2.831

$$$$
ligand
 OpenBabel01301917533D
libRbt.so/2013.1/901 2013/11/27
 34 36  0  0  0  0  0  0  0  0999 V2000
   18.7184   26.8505   36.1449 C   0  0  2  0  0  0  0  0  0  0  0  0
   19.3350   27.7493   37.0723 O   0  0  0  0  0  0  0  0  0  0  0  0
   23.1992   27.9813   38.9205 C   0  0  2  0  0  0  0  0  0  0  0  0
   24.6520   27.9314   39.1341 N   0  0  0  0  0  0  0  0  0  0  0  0
   24.5347   30.9826   38.0336 C   0  0  2  0  0  0  0  0  0  0  0  0
   18.9899   27.3887   34.6898 C   0  0  2  0  0  0  0  0  0  0  0  0
   20.4347   27.4838   34.4264 N   0  0  0  0  0  0  0  0  0  0  0  0
   22.7518   26.5890   38.3457 C   0  0  0  0  0  0  0  0  0  0  0  0
   24.7244   32.2683   38.9315 C   0  0  2  0  0  0  0  0  0  0  0  0
   24.7911   31.9072   40.3003 O   0  0  0  0  0  0  0  0  0  0  0  0
   18.3177   28.7815   34.4969 C   0  0  1  0  0  0  0  0  0  0  0  0
   18.5635   29.2774   33.1680 O   0  0  0  0  0  0  0  0  0  0  0  0
   21.1975   26.6368   38.1361 C   0  0  2  0  0  0  0  0  0  0  0  0
   20.7014   25.3439   37.5841 N   0  0  0  0  0  0  0  0  0  0  0  0
   23.5010   33.2284   38.6790 C   0  0  1  0  0  0  0  0  0  0  0  0
   23.5996   34.4386   39.5195 N   0  0  0  0  0  0  0  0  0  0  0  0
   16.8042   28.6361   34.7803 C   0  0  2  0  0  0  0  0  0  0  0  0
   16.1650   29.9033   34.5966 O   0  0  0  0  0  0  0  0  0  0  0  0
   20.8045   27.7846   37.1576 C   0  0  2  0  0  0  0  0  0  0  0  0
   23.4637   33.6178   37.1673 C   0  0  1  0  0  0  0  0  0  0  0  0
   24.6644   34.3154   36.8527 O   0  0  0  0  0  0  0  0  0  0  0  0
   16.6110   28.0938   36.2617 C   0  0  2  0  0  0  0  0  0  0  0  0
   17.2875   26.7888   36.4338 O   0  0  0  0  0  0  0  0  0  0  0  0
   21.3205   29.1356   37.7236 C   0  0  2  0  0  0  0  0  0  0  0  0
   20.9762   30.1627   36.7961 O   0  0  0  0  0  0  0  0  0  0  0  0
   23.3651   32.3137   36.3122 C   0  0  0  0  0  0  0  0  0  0  0  0
   24.4805   31.3849   36.6144 O   0  0  0  0  0  0  0  0  0  0  0  0
   15.1138   27.9088   36.6419 C   0  0  2  0  0  0  0  0  0  0  0  0
   14.4520   27.1724   35.6076 O   0  0  0  0  0  0  0  0  0  0  0  0
   22.8602   29.1406   37.8892 C   0  0  1  0  0  0  0  0  0  0  0  0
   23.2445   30.4280   38.4458 O   0  0  0  0  0  0  0  0  0  0  0  0
   14.3970   29.2316   36.8005 C   0  0  0  0  0  0  0  0  0  0  0  0
   22.2870   34.5368   36.8361 C   0  0  0  0  0  0  0  0  0  0  0  0
   22.9310   34.1393   40.8096 C   0  0  0  0  0  0  0  0  0  0  0  0
  1  2  1  1  0  0  0
  1  6  1  0  0  0  0
  1 23  1  0  0  0  0
  3  4  1  6  0  0  0
  3  8  1  0  0  0  0
  3 30  1  0  0  0  0
  5  9  1  0  0  0  0
  5 27  1  0  0  0  0
  5 31  1  1  0  0  0
  6  7  1  1  0  0  0
  6 11  1  0  0  0  0
  8 13  1  0  0  0  0
  9 10  1  1  0  0  0
  9 15  1  0  0  0  0
 11 12  1  6  0  0  0
 11 17  1  0  0  0  0
 13 14  1  6  0  0  0
 13 19  1  0  0  0  0
 15 16  1  1  0  0  0
 15 20  1  0  0  0  0
 16 34  1  0  0  0  0
 17 18  1  1  0  0  0
 17 22  1  0  0  0  0
 19  2  1  1  0  0  0
 19 24  1  0  0  0  0
 20 21  1  6  0  0  0
 20 26  1  0  0  0  0
 20 33  1  0  0  0  0
 22 23  1  6  0  0  0
 22 28  1  0  0  0  0
 24 25  1  6  0  0  0
 24 30  1  0  0  0  0
 26 27  1  0  0  0  0
 28 29  1  6  0  0  0
 28 32  1  0  0  0  0
 30 31  1  1  0  0  0
M  END
>  <CHROM.1>
-70.62615346,-84.72501482,-88.76921653,49.26436114,97.86358364,-173.38723142
20.83492049,29.72584408,37.08461033,-2.63369956,-0.42973996,-0.09785438

>  <Name>
ligand

>  <RI>
0

>  <Rbt.Current_Directory>
/home/itssahil/PROJECTS/Mol_Feturizer/New_Systems/rnas/4p3s

>  <Rbt.Executable>
rbdock ($Id: //depot/dev/client3/rdock/2013.1/src/exe/rbdock.cxx#4 $)

>  <Rbt.Library>
libRbt.so (2013.1, Build901 2013/11/27)

>  <Rbt.Parameter_File>
/export/apps/rDock/src/rDock_2013.1_src/data/scripts/dock_solv.prm

>  <Rbt.Receptor>
prm/pocket_docking_2.prm

>  <SCORE>
-5.89025

>  <SCORE.INTER>
-8.2664

>  <SCORE.INTER.CONST>
1

>  <SCORE.INTER.POLAR>
0

>  <SCORE.INTER.ROT>
6

>  <SCORE.INTER.SOLV>
25.3058

>  <SCORE.INTER.VDW>
-21.5462

>  <SCORE.INTER.norm>
-0.243129

>  <SCORE.INTRA>
-0.631214

>  <SCORE.INTRA.DIHEDRAL>
-6.43055

>  <SCORE.INTRA.DIHEDRAL.0>
15.8194

>  <SCORE.INTRA.POLAR>
0

>  <SCORE.INTRA.POLAR.0>
0

>  <SCORE.INTRA.REPUL>
0

>  <SCORE.INTRA.REPUL.0>
0

>  <SCORE.INTRA.SOLV>
2.89029

>  <SCORE.INTRA.SOLV.lig_0>
-71.9159

>  <SCORE.INTRA.VDW>
1.13892

>  <SCORE.INTRA.VDW.0>
-3.53918

>  <SCORE.INTRA.norm>
-0.0185651

>  <SCORE.RESTR>
3.00736

>  <SCORE.RESTR.CAVITY>
3.00736

>  <SCORE.RESTR.norm>
0.0884517

>  <SCORE.SYSTEM>
0

>  <SCORE.SYSTEM.CONST>
0

>  <SCORE.SYSTEM.DIHEDRAL>
0

>  <SCORE.SYSTEM.SOLV>
0

>  <SCORE.SYSTEM.norm>
0

>  <SCORE.heavy>
34

>  <SCORE.norm>
-0.173243

>  <RMSD>
2.854

$$$$
ligand
 OpenBabel01301917533D
libRbt.so/2013.1/901 2013/11/27
 34 36  0  0  0  0  0  0  0  0999 V2000
   19.2535   26.4566   36.2731 C   0  0  2  0  0  0  0  0  0  0  0  0
   20.4495   26.8925   35.6190 O   0  0  0  0  0  0  0  0  0  0  0  0
   22.2105   29.1300   38.8275 C   0  0  2  0  0  0  0  0  0  0  0  0
   23.1927   29.7044   39.7569 N   0  0  0  0  0  0  0  0  0  0  0  0
   23.4585   31.9839   37.2149 C   0  0  2  0  0  0  0  0  0  0  0  0
   18.3477   25.7365   35.2046 C   0  0  2  0  0  0  0  0  0  0  0  0
   19.0510   24.5900   34.6072 N   0  0  0  0  0  0  0  0  0  0  0  0
   22.3880   27.5688   38.8482 C   0  0  0  0  0  0  0  0  0  0  0  0
   23.4091   32.9495   38.4641 C   0  0  2  0  0  0  0  0  0  0  0  0
   23.5066   32.2049   39.6660 O   0  0  0  0  0  0  0  0  0  0  0  0
   17.9234   26.7429   34.0927 C   0  0  1  0  0  0  0  0  0  0  0  0
   17.0952   26.0887   33.1136 O   0  0  0  0  0  0  0  0  0  0  0  0
   21.3256   26.9551   37.8699 C   0  0  2  0  0  0  0  0  0  0  0  0
   21.4404   25.4692   37.8343 N   0  0  0  0  0  0  0  0  0  0  0  0
   22.0466   33.7396   38.4203 C   0  0  1  0  0  0  0  0  0  0  0  0
   21.9213   34.6375   39.5860 N   0  0  0  0  0  0  0  0  0  0  0  0
   17.1877   27.9274   34.7618 C   0  0  2  0  0  0  0  0  0  0  0  0
   16.7782   28.8587   33.7554 O   0  0  0  0  0  0  0  0  0  0  0  0
   21.5164   27.5086   36.4254 C   0  0  2  0  0  0  0  0  0  0  0  0
   21.9763   34.5588   37.0928 C   0  0  1  0  0  0  0  0  0  0  0  0
   23.0482   35.4959   37.0852 O   0  0  0  0  0  0  0  0  0  0  0  0
   18.1623   28.6024   35.8204 C   0  0  2  0  0  0  0  0  0  0  0  0
   18.5822   27.6211   36.8455 O   0  0  0  0  0  0  0  0  0  0  0  0
   21.4016   29.0569   36.4537 C   0  0  2  0  0  0  0  0  0  0  0  0
   21.6108   29.5391   35.1280 O   0  0  0  0  0  0  0  0  0  0  0  0
   22.1177   33.5770   35.8855 C   0  0  0  0  0  0  0  0  0  0  0  0
   23.3674   32.7846   35.9782 O   0  0  0  0  0  0  0  0  0  0  0  0
   17.5079   29.8083   36.5539 C   0  0  2  0  0  0  0  0  0  0  0  0
   18.3292   30.1874   37.6639 O   0  0  0  0  0  0  0  0  0  0  0  0
   22.4747   29.6979   37.3680 C   0  0  1  0  0  0  0  0  0  0  0  0
   22.2721   31.1378   37.3515 O   0  0  0  0  0  0  0  0  0  0  0  0
   16.1325   29.4742   37.0878 C   0  0  0  0  0  0  0  0  0  0  0  0
   20.6685   35.3413   36.9652 C   0  0  0  0  0  0  0  0  0  0  0  0
   21.0139   33.9798   40.5580 C   0  0  0  0  0  0  0  0  0  0  0  0
  1  2  1  6  0  0  0
  1  6  1  0  0  0  0
  1 23  1  0  0  0  0
  3  4  1  1  0  0  0
  3  8  1  0  0  0  0
  3 30  1  0  0  0  0
  5  9  1  0  0  0  0
  5 27  1  0  0  0  0
  5 31  1  1  0  0  0
  6  7  1  6  0  0  0
  6 11  1  0  0  0  0
  8 13  1  0  0  0  0
  9 10  1  1  0  0  0
  9 15  1  0  0  0  0
 11 12  1  6  0  0  0
 11 17  1  0  0  0  0
 13 14  1  6  0  0  0
 13 19  1  0  0  0  0
 15 16  1  1  0  0  0
 15 20  1  0  0  0  0
 16 34  1  0  0  0  0
 17 18  1  6  0  0  0
 17 22  1  0  0  0  0
 19  2  1  6  0  0  0
 19 24  1  0  0  0  0
 20 21  1  6  0  0  0
 20 26  1  0  0  0  0
 20 33  1  0  0  0  0
 22 23  1  1  0  0  0
 22 28  1  0  0  0  0
 24 25  1  6  0  0  0
 24 30  1  0  0  0  0
 26 27  1  0  0  0  0
 28 29  1  1  0  0  0
 28 32  1  0  0  0  0
 30 31  1  1  0  0  0
M  END
>  <CHROM.1>
-175.37050832,24.95807941,-101.75552664,168.41760755,108.89326942,-124.28608671
20.60869659,29.91559232,36.87315999,-2.18050104,-0.57197556,0.04030422

>  <Name>
ligand

>  <RI>
0

>  <Rbt.Current_Directory>
/home/itssahil/PROJECTS/Mol_Feturizer/New_Systems/rnas/4p3s

>  <Rbt.Executable>
rbdock ($Id: //depot/dev/client3/rdock/2013.1/src/exe/rbdock.cxx#4 $)

>  <Rbt.Library>
libRbt.so (2013.1, Build901 2013/11/27)

>  <Rbt.Parameter_File>
/export/apps/rDock/src/rDock_2013.1_src/data/scripts/dock_solv.prm

>  <Rbt.Receptor>
prm/pocket_docking_2.prm

>  <SCORE>
10.7881

>  <SCORE.INTER>
3.2077

>  <SCORE.INTER.CONST>
1

>  <SCORE.INTER.POLAR>
0

>  <SCORE.INTER.ROT>
6

>  <SCORE.INTER.SOLV>
17.0512

>  <SCORE.INTER.VDW>
-11.1453

>  <SCORE.INTER.norm>
0.0943441

>  <SCORE.INTRA>
6.03785

>  <SCORE.INTRA.DIHEDRAL>
3.88494

>  <SCORE.INTRA.DIHEDRAL.0>
15.8194

>  <SCORE.INTRA.POLAR>
0

>  <SCORE.INTRA.POLAR.0>
0

>  <SCORE.INTRA.REPUL>
0.0400465

>  <SCORE.INTRA.REPUL.0>
0

>  <SCORE.INTRA.SOLV>
2.18219

>  <SCORE.INTRA.SOLV.lig_0>
-71.9159

>  <SCORE.INTRA.VDW>
2.80406

>  <SCORE.INTRA.VDW.0>
-3.53918

>  <SCORE.INTRA.norm>
0.177584

>  <SCORE.RESTR>
1.54251

>  <SCORE.RESTR.CAVITY>
1.54251

>  <SCORE.RESTR.norm>
0.0453679

>  <SCORE.SYSTEM>
0

>  <SCORE.SYSTEM.CONST>
0

>  <SCORE.SYSTEM.DIHEDRAL>
0

>  <SCORE.SYSTEM.SOLV>
0

>  <SCORE.SYSTEM.norm>
0

>  <SCORE.heavy>
34

>  <SCORE.norm>
0.317296

>  <RMSD>
2.875

$$$$
ligand
 OpenBabel01301917533D
libRbt.so/2013.1/901 2013/11/27
 34 36  0  0  0  0  0  0  0  0999 V2000
   19.5313   25.9533   36.3228 C   0  0  2  0  0  0  0  0  0  0  0  0
   20.5380   26.6903   35.6217 O   0  0  0  0  0  0  0  0  0  0  0  0
   21.5669   29.6410   38.5606 C   0  0  2  0  0  0  0  0  0  0  0  0
   22.3410   30.5271   39.4405 N   0  0  0  0  0  0  0  0  0  0  0  0
   22.0102   32.2418   35.8492 C   0  0  2  0  0  0  0  0  0  0  0  0
   18.7719   25.0504   35.2793 C   0  0  2  0  0  0  0  0  0  0  0  0
   19.7026   24.1310   34.6052 N   0  0  0  0  0  0  0  0  0  0  0  0
   22.0674   28.1710   38.8015 C   0  0  0  0  0  0  0  0  0  0  0  0
   23.0700   33.0496   36.6975 C   0  0  2  0  0  0  0  0  0  0  0  0
   23.9929   32.1625   37.3058 O   0  0  0  0  0  0  0  0  0  0  0  0
   18.0425   25.9401   34.2279 C   0  0  1  0  0  0  0  0  0  0  0  0
   17.3471   25.1187   33.2718 O   0  0  0  0  0  0  0  0  0  0  0  0
   21.2268   27.2233   37.8755 C   0  0  2  0  0  0  0  0  0  0  0  0
   21.6541   25.8055   38.0479 N   0  0  0  0  0  0  0  0  0  0  0  0
   22.2958   33.8706   37.7970 C   0  0  1  0  0  0  0  0  0  0  0  0
   23.2364   34.6231   38.6514 N   0  0  0  0  0  0  0  0  0  0  0  0
   17.0753   26.8866   34.9767 C   0  0  2  0  0  0  0  0  0  0  0  0
   16.3854   27.7052   34.0271 O   0  0  0  0  0  0  0  0  0  0  0  0
   21.3941   27.6198   36.3775 C   0  0  2  0  0  0  0  0  0  0  0  0
   21.2988   34.8462   37.0953 C   0  0  1  0  0  0  0  0  0  0  0  0
   22.0470   35.7522   36.2910 O   0  0  0  0  0  0  0  0  0  0  0  0
   17.9118   27.7634   36.0050 C   0  0  2  0  0  0  0  0  0  0  0  0
   18.6254   26.8987   36.9710 O   0  0  0  0  0  0  0  0  0  0  0  0
   20.9542   29.0971   36.1892 C   0  0  2  0  0  0  0  0  0  0  0  0
   21.1465   29.4435   34.8192 O   0  0  0  0  0  0  0  0  0  0  0  0
   20.3261   34.0151   36.1984 C   0  0  0  0  0  0  0  0  0  0  0  0
   21.0700   33.1885   35.2179 O   0  0  0  0  0  0  0  0  0  0  0  0
   17.0217   28.7497   36.8145 C   0  0  2  0  0  0  0  0  0  0  0  0
   15.8279   28.0764   37.2289 O   0  0  0  0  0  0  0  0  0  0  0  0
   21.8039   30.0655   37.0487 C   0  0  1  0  0  0  0  0  0  0  0  0
   21.3042   31.4131   36.8275 O   0  0  0  0  0  0  0  0  0  0  0  0
   16.6139   29.9548   35.9959 C   0  0  0  0  0  0  0  0  0  0  0  0
   20.4911   35.6686   38.1004 C   0  0  0  0  0  0  0  0  0  0  0  0
   23.2973   33.9310   39.9621 C   0  0  0  0  0  0  0  0  0  0  0  0
  1  2  1  6  0  0  0
  1  6  1  0  0  0  0
  1 23  1  0  0  0  0
  3  4  1  1  0  0  0
  3  8  1  0  0  0  0
  3 30  1  0  0  0  0
  5  9  1  0  0  0  0
  5 27  1  0  0  0  0
  5 31  1  1  0  0  0
  6  7  1  6  0  0  0
  6 11  1  0  0  0  0
  8 13  1  0  0  0  0
  9 10  1  1  0  0  0
  9 15  1  0  0  0  0
 11 12  1  6  0  0  0
 11 17  1  0  0  0  0
 13 14  1  6  0  0  0
 13 19  1  0  0  0  0
 15 16  1  6  0  0  0
 15 20  1  0  0  0  0
 16 34  1  0  0  0  0
 17 18  1  6  0  0  0
 17 22  1  0  0  0  0
 19  2  1  6  0  0  0
 19 24  1  0  0  0  0
 20 21  1  6  0  0  0
 20 26  1  0  0  0  0
 20 33  1  0  0  0  0
 22 23  1  1  0  0  0
 22 28  1  0  0  0  0
 24 25  1  6  0  0  0
 24 30  1  0  0  0  0
 26 27  1  0  0  0  0
 28 29  1  6  0  0  0
 28 32  1  0  0  0  0
 30 31  1  1  0  0  0
M  END
>  <CHROM.1>
179.85455708,16.66285461,-106.05585501,42.92758230,147.34375720,-92.97791812
20.33040657,29.76740564,36.58019790,-2.09991368,-0.49743683,0.00757121

>  <Name>
ligand

>  <RI>
0

>  <Rbt.Current_Directory>
/home/itssahil/PROJECTS/Mol_Feturizer/New_Systems/rnas/4p3s

>  <Rbt.Executable>
rbdock ($Id: //depot/dev/client3/rdock/2013.1/src/exe/rbdock.cxx#4 $)

>  <Rbt.Library>
libRbt.so (2013.1, Build901 2013/11/27)

>  <Rbt.Parameter_File>
/export/apps/rDock/src/rDock_2013.1_src/data/scripts/dock_solv.prm

>  <Rbt.Receptor>
prm/pocket_docking_2.prm

>  <SCORE>
5.04961

>  <SCORE.INTER>
0.12216

>  <SCORE.INTER.CONST>
1

>  <SCORE.INTER.POLAR>
0

>  <SCORE.INTER.ROT>
6

>  <SCORE.INTER.SOLV>
17.897

>  <SCORE.INTER.VDW>
-13.4842

>  <SCORE.INTER.norm>
0.00359294

>  <SCORE.INTRA>
4.37509

>  <SCORE.INTRA.DIHEDRAL>
0.379968

>  <SCORE.INTRA.DIHEDRAL.0>
15.8194

>  <SCORE.INTRA.POLAR>
0

>  <SCORE.INTRA.POLAR.0>
0

>  <SCORE.INTRA.REPUL>
0

>  <SCORE.INTRA.REPUL.0>
0

>  <SCORE.INTRA.SOLV>
2.56347

>  <SCORE.INTRA.SOLV.lig_0>
-71.9159

>  <SCORE.INTRA.VDW>
2.90338

>  <SCORE.INTRA.VDW.0>
-3.53918

>  <SCORE.INTRA.norm>
0.128679

>  <SCORE.RESTR>
0.552353

>  <SCORE.RESTR.CAVITY>
0.552353

>  <SCORE.RESTR.norm>
0.0162457

>  <SCORE.SYSTEM>
0

>  <SCORE.SYSTEM.CONST>
0

>  <SCORE.SYSTEM.DIHEDRAL>
0

>  <SCORE.SYSTEM.SOLV>
0

>  <SCORE.SYSTEM.norm>
0

>  <SCORE.heavy>
34

>  <SCORE.norm>
0.148518

>  <RMSD>
2.889

$$$$
ligand
 OpenBabel01301917533D
libRbt.so/2013.1/901 2013/11/27
 34 36  0  0  0  0  0  0  0  0999 V2000
   17.5164   28.3055   34.5516 C   0  0  2  0  0  0  0  0  0  0  0  0
   18.3968   28.1101   35.6628 O   0  0  0  0  0  0  0  0  0  0  0  0
   21.9617   30.1879   36.8358 C   0  0  2  0  0  0  0  0  0  0  0  0
   23.3543   30.6527   36.8927 N   0  0  0  0  0  0  0  0  0  0  0  0
   22.5342   32.8294   35.2911 C   0  0  2  0  0  0  0  0  0  0  0  0
   16.1029   27.7305   34.9419 C   0  0  2  0  0  0  0  0  0  0  0  0
   15.5740   28.4050   36.1383 N   0  0  0  0  0  0  0  0  0  0  0  0
   21.9774   28.6185   36.9131 C   0  0  0  0  0  0  0  0  0  0  0  0
   22.1393   34.3577   35.2298 C   0  0  2  0  0  0  0  0  0  0  0  0
   21.5156   34.7538   36.4392 O   0  0  0  0  0  0  0  0  0  0  0  0
   16.1964   26.1948   35.1904 C   0  0  1  0  0  0  0  0  0  0  0  0
   14.9064   25.6651   35.5476 O   0  0  0  0  0  0  0  0  0  0  0  0
   20.4888   28.1241   36.8718 C   0  0  2  0  0  0  0  0  0  0  0  0
   20.4271   26.6360   36.9356 N   0  0  0  0  0  0  0  0  0  0  0  0
   21.1562   34.5624   34.0158 C   0  0  1  0  0  0  0  0  0  0  0  0
   20.7186   35.9699   33.9245 N   0  0  0  0  0  0  0  0  0  0  0  0
   16.7527   25.5267   33.9112 C   0  0  2  0  0  0  0  0  0  0  0  0
   16.8352   24.1125   34.1142 O   0  0  0  0  0  0  0  0  0  0  0  0
   19.7818   28.6008   35.5671 C   0  0  2  0  0  0  0  0  0  0  0  0
   21.8767   34.1305   32.6995 C   0  0  1  0  0  0  0  0  0  0  0  0
   23.0132   34.9679   32.5132 O   0  0  0  0  0  0  0  0  0  0  0  0
   18.1761   26.1538   33.5844 C   0  0  2  0  0  0  0  0  0  0  0  0
   18.0710   27.6169   33.3884 O   0  0  0  0  0  0  0  0  0  0  0  0
   19.8442   30.1505   35.4907 C   0  0  2  0  0  0  0  0  0  0  0  0
   19.2196   30.5578   34.2751 O   0  0  0  0  0  0  0  0  0  0  0  0
   22.3286   32.6410   32.8365 C   0  0  0  0  0  0  0  0  0  0  0  0
   23.1916   32.4465   34.0262 O   0  0  0  0  0  0  0  0  0  0  0  0
   18.8194   25.5461   32.3048 C   0  0  2  0  0  0  0  0  0  0  0  0
   17.7886   25.2334   31.3615 O   0  0  0  0  0  0  0  0  0  0  0  0
   21.3036   30.6684   35.4726 C   0  0  1  0  0  0  0  0  0  0  0  0
   21.2606   32.1212   35.4273 O   0  0  0  0  0  0  0  0  0  0  0  0
   19.5813   24.2725   32.5981 C   0  0  0  0  0  0  0  0  0  0  0  0
   20.9770   34.2812   31.4720 C   0  0  0  0  0  0  0  0  0  0  0  0
   19.2826   36.0137   34.2945 C   0  0  0  0  0  0  0  0  0  0  0  0
  1  2  1  1  0  0  0
  1  6  1  0  0  0  0
  1 23  1  0  0  0  0
  3  4  1  6  0  0  0
  3  8  1  0  0  0  0
  3 30  1  0  0  0  0
  5  9  1  0  0  0  0
  5 27  1  0  0  0  0
  5 31  1  6  0  0  0
  6  7  1  1  0  0  0
  6 11  1  0  0  0  0
  8 13  1  0  0  0  0
  9 10  1  1  0  0  0
  9 15  1  0  0  0  0
 11 12  1  6  0  0  0
 11 17  1  0  0  0  0
 13 14  1  6  0  0  0
 13 19  1  0  0  0  0
 15 16  1  6  0  0  0
 15 20  1  0  0  0  0
 16 34  1  0  0  0  0
 17 18  1  1  0  0  0
 17 22  1  0  0  0  0
 19  2  1  1  0  0  0
 19 24  1  0  0  0  0
 20 21  1  6  0  0  0
 20 26  1  0  0  0  0
 20 33  1  0  0  0  0
 22 23  1  6  0  0  0
 22 28  1  0  0  0  0
 24 25  1  6  0  0  0
 24 30  1  0  0  0  0
 26 27  1  0  0  0  0
 28 29  1  6  0  0  0
 28 32  1  0  0  0  0
 30 31  1  1  0  0  0
M  END
>  <CHROM.1>
-178.23265584,-175.24902886,-110.27751218,33.99385671,69.54797031,178.33966633
19.78216664,29.88541910,34.58225479,2.27148248,0.74531074,2.62079683

>  <Name>
ligand

>  <RI>
0

>  <Rbt.Current_Directory>
/home/itssahil/PROJECTS/Mol_Feturizer/New_Systems/rnas/4p3s

>  <Rbt.Executable>
rbdock ($Id: //depot/dev/client3/rdock/2013.1/src/exe/rbdock.cxx#4 $)

>  <Rbt.Library>
libRbt.so (2013.1, Build901 2013/11/27)

>  <Rbt.Parameter_File>
/export/apps/rDock/src/rDock_2013.1_src/data/scripts/dock_solv.prm

>  <Rbt.Receptor>
prm/pocket_docking_5.prm

>  <SCORE>
-15.8069

>  <SCORE.INTER>
-10.1379

>  <SCORE.INTER.CONST>
1

>  <SCORE.INTER.POLAR>
0

>  <SCORE.INTER.ROT>
6

>  <SCORE.INTER.SOLV>
17.3657

>  <SCORE.INTER.VDW>
-20.1472

>  <SCORE.INTER.norm>
-0.298173

>  <SCORE.INTRA>
-5.66899

>  <SCORE.INTRA.DIHEDRAL>
-11.9101

>  <SCORE.INTRA.DIHEDRAL.0>
15.8194

>  <SCORE.INTRA.POLAR>
0

>  <SCORE.INTRA.POLAR.0>
0

>  <SCORE.INTRA.REPUL>
0

>  <SCORE.INTRA.REPUL.0>
0

>  <SCORE.INTRA.SOLV>
-0.478329

>  <SCORE.INTRA.SOLV.lig_0>
-71.9159

>  <SCORE.INTRA.VDW>
0.525243

>  <SCORE.INTRA.VDW.0>
-3.53918

>  <SCORE.INTRA.norm>
-0.166735

>  <SCORE.RESTR>
0

>  <SCORE.RESTR.CAVITY>
0

>  <SCORE.RESTR.norm>
0

>  <SCORE.SYSTEM>
0

>  <SCORE.SYSTEM.CONST>
0

>  <SCORE.SYSTEM.DIHEDRAL>
0

>  <SCORE.SYSTEM.SOLV>
0

>  <SCORE.SYSTEM.norm>
0

>  <SCORE.heavy>
34

>  <SCORE.norm>
-0.464908

>  <RMSD>
2.982

$$$$
ligand
 OpenBabel01301917533D
libRbt.so/2013.1/901 2013/11/27
 34 36  0  0  0  0  0  0  0  0999 V2000
   17.5798   28.2759   34.5351 C   0  0  2  0  0  0  0  0  0  0  0  0
   18.4828   28.0528   35.6227 O   0  0  0  0  0  0  0  0  0  0  0  0
   21.9861   30.2533   36.7571 C   0  0  2  0  0  0  0  0  0  0  0  0
   23.3669   30.7525   36.8113 N   0  0  0  0  0  0  0  0  0  0  0  0
   22.5139   32.8530   35.1337 C   0  0  2  0  0  0  0  0  0  0  0  0
   16.1644   27.7277   34.9558 C   0  0  2  0  0  0  0  0  0  0  0  0
   15.6795   28.4032   36.1701 N   0  0  0  0  0  0  0  0  0  0  0  0
   22.0374   28.6884   36.8893 C   0  0  0  0  0  0  0  0  0  0  0  0
   22.0939   34.3758   35.1356 C   0  0  2  0  0  0  0  0  0  0  0  0
   21.4939   34.7193   36.3727 O   0  0  0  0  0  0  0  0  0  0  0  0
   16.2313   26.1883   35.1900 C   0  0  1  0  0  0  0  0  0  0  0  0
   14.9395   25.6829   35.5750 O   0  0  0  0  0  0  0  0  0  0  0  0
   20.5611   28.1580   36.8508 C   0  0  2  0  0  0  0  0  0  0  0  0
   20.5332   26.6719   36.9659 N   0  0  0  0  0  0  0  0  0  0  0  0
   21.0784   34.6064   33.9533 C   0  0  1  0  0  0  0  0  0  0  0  0
   20.6168   36.0088   33.9222 N   0  0  0  0  0  0  0  0  0  0  0  0
   16.7417   25.5192   33.8923 C   0  0  2  0  0  0  0  0  0  0  0  0
   16.7990   24.1020   34.0823 O   0  0  0  0  0  0  0  0  0  0  0  0
   19.8570   28.5724   35.5234 C   0  0  2  0  0  0  0  0  0  0  0  0
   21.7731   34.2325   32.6058 C   0  0  1  0  0  0  0  0  0  0  0  0
   22.8915   35.0943   32.4221 O   0  0  0  0  0  0  0  0  0  0  0  0
   18.1696   26.1189   33.5353 C   0  0  2  0  0  0  0  0  0  0  0  0
   18.0909   27.5854   33.3533 O   0  0  0  0  0  0  0  0  0  0  0  0
   19.8843   30.1196   35.3936 C   0  0  2  0  0  0  0  0  0  0  0  0
   19.2633   30.4697   34.1585 O   0  0  0  0  0  0  0  0  0  0  0  0
   22.2513   32.7467   32.6796 C   0  0  0  0  0  0  0  0  0  0  0  0
   23.1461   32.5251   33.8407 O   0  0  0  0  0  0  0  0  0  0  0  0
   18.7682   25.5083   32.2355 C   0  0  2  0  0  0  0  0  0  0  0  0
   17.7019   25.0900   31.3763 O   0  0  0  0  0  0  0  0  0  0  0  0
   21.3314   30.6707   35.3716 C   0  0  1  0  0  0  0  0  0  0  0  0
   21.2552   32.1197   35.2752 O   0  0  0  0  0  0  0  0  0  0  0  0
   19.6362   24.3020   32.5181 C   0  0  0  0  0  0  0  0  0  0  0  0
   20.8414   34.4110   31.4063 C   0  0  0  0  0  0  0  0  0  0  0  0
   19.3604   36.0808   34.7078 C   0  0  0  0  0  0  0  0  0  0  0  0
  1  2  1  1  0  0  0
  1  6  1  0  0  0  0
  1 23  1  0  0  0  0
  3  4  1  6  0  0  0
  3  8  1  0  0  0  0
  3 30  1  0  0  0  0
  5  9  1  0  0  0  0
  5 27  1  0  0  0  0
  5 31  1  6  0  0  0
  6  7  1  1  0  0  0
  6 11  1  0  0  0  0
  8 13  1  0  0  0  0
  9 10  1  1  0  0  0
  9 15  1  0  0  0  0
 11 12  1  6  0  0  0
 11 17  1  0  0  0  0
 13 14  1  6  0  0  0
 13 19  1  0  0  0  0
 15 16  1  6  0  0  0
 15 20  1  0  0  0  0
 16 34  1  0  0  0  0
 17 18  1  1  0  0  0
 17 22  1  0  0  0  0
 19  2  1  1  0  0  0
 19 24  1  0  0  0  0
 20 21  1  6  0  0  0
 20 26  1  0  0  0  0
 20 33  1  0  0  0  0
 22 23  1  6  0  0  0
 22 28  1  0  0  0  0
 24 25  1  6  0  0  0
 24 30  1  0  0  0  0
 26 27  1  0  0  0  0
 28 29  1  6  0  0  0
 28 32  1  0  0  0  0
 30 31  1  1  0  0  0
M  END
>  <CHROM.1>
-175.30470499,-179.81309842,-93.14323116,27.70468550,69.24487002,-177.05324546
19.78314485,29.90057451,34.53855407,2.28804935,0.78809095,2.58435767

>  <Name>
ligand

>  <RI>
0

>  <Rbt.Current_Directory>
/home/itssahil/PROJECTS/Mol_Feturizer/New_Systems/rnas/4p3s

>  <Rbt.Executable>
rbdock ($Id: //depot/dev/client3/rdock/2013.1/src/exe/rbdock.cxx#4 $)

>  <Rbt.Library>
libRbt.so (2013.1, Build901 2013/11/27)

>  <Rbt.Parameter_File>
/export/apps/rDock/src/rDock_2013.1_src/data/scripts/dock_solv.prm

>  <Rbt.Receptor>
prm/pocket_docking_7.prm

>  <SCORE>
-15.8233

>  <SCORE.INTER>
-10.8297

>  <SCORE.INTER.CONST>
1

>  <SCORE.INTER.POLAR>
0

>  <SCORE.INTER.ROT>
6

>  <SCORE.INTER.SOLV>
17.0413

>  <SCORE.INTER.VDW>
-20.5003

>  <SCORE.INTER.norm>
-0.318522

>  <SCORE.INTRA>
-4.99358

>  <SCORE.INTRA.DIHEDRAL>
-11.472

>  <SCORE.INTRA.DIHEDRAL.0>
15.8194

>  <SCORE.INTRA.POLAR>
0

>  <SCORE.INTRA.POLAR.0>
0

>  <SCORE.INTRA.REPUL>
0

>  <SCORE.INTRA.REPUL.0>
0

>  <SCORE.INTRA.SOLV>
-0.591115

>  <SCORE.INTRA.SOLV.lig_0>
-71.9159

>  <SCORE.INTRA.VDW>
1.03795

>  <SCORE.INTRA.VDW.0>
-3.53918

>  <SCORE.INTRA.norm>
-0.14687

>  <SCORE.RESTR>
0

>  <SCORE.RESTR.CAVITY>
0

>  <SCORE.RESTR.norm>
0

>  <SCORE.SYSTEM>
0

>  <SCORE.SYSTEM.CONST>
0

>  <SCORE.SYSTEM.DIHEDRAL>
0

>  <SCORE.SYSTEM.SOLV>
0

>  <SCORE.SYSTEM.norm>
0

>  <SCORE.heavy>
34

>  <SCORE.norm>
-0.465392

>  <RMSD>
3.003

$$$$
ligand
 OpenBabel01301917533D
libRbt.so/2013.1/901 2013/11/27
 34 36  0  0  0  0  0  0  0  0999 V2000
   19.2441   27.5109   35.3850 C   0  0  2  0  0  0  0  0  0  0  0  0
   19.3932   27.7844   36.7818 O   0  0  0  0  0  0  0  0  0  0  0  0
   22.4591   28.1794   39.7560 C   0  0  2  0  0  0  0  0  0  0  0  0
   23.7742   28.2793   40.4035 N   0  0  0  0  0  0  0  0  0  0  0  0
   23.4687   31.3789   39.8139 C   0  0  2  0  0  0  0  0  0  0  0  0
   19.4971   28.8503   34.5958 C   0  0  2  0  0  0  0  0  0  0  0  0
   20.8432   29.3766   34.8732 N   0  0  0  0  0  0  0  0  0  0  0  0
   22.4483   26.8652   38.8947 C   0  0  0  0  0  0  0  0  0  0  0  0
   23.0947   32.6350   40.6958 C   0  0  2  0  0  0  0  0  0  0  0  0
   22.6198   32.2212   41.9654 O   0  0  0  0  0  0  0  0  0  0  0  0
   18.4192   29.9102   34.9748 C   0  0  1  0  0  0  0  0  0  0  0  0
   18.6469   31.1363   34.2557 O   0  0  0  0  0  0  0  0  0  0  0  0
   21.0367   26.7495   38.2192 C   0  0  2  0  0  0  0  0  0  0  0  0
   20.9560   25.5220   37.3770 N   0  0  0  0  0  0  0  0  0  0  0  0
   21.9828   33.4539   39.9372 C   0  0  1  0  0  0  0  0  0  0  0  0
   21.5610   34.6269   40.7290 N   0  0  0  0  0  0  0  0  0  0  0  0
   17.0239   29.3188   34.6660 C   0  0  2  0  0  0  0  0  0  0  0  0
   16.0185   30.2823   34.9959 O   0  0  0  0  0  0  0  0  0  0  0  0
   20.7460   27.9924   37.3248 C   0  0  2  0  0  0  0  0  0  0  0  0
   22.5411   33.9059   38.5507 C   0  0  1  0  0  0  0  0  0  0  0  0
   23.6625   34.7548   38.7724 O   0  0  0  0  0  0  0  0  0  0  0  0
   16.8419   27.9766   35.4976 C   0  0  2  0  0  0  0  0  0  0  0  0
   17.8963   26.9982   35.1498 O   0  0  0  0  0  0  0  0  0  0  0  0
   20.8312   29.2766   38.1938 C   0  0  2  0  0  0  0  0  0  0  0  0
   20.5929   30.3989   37.3468 O   0  0  0  0  0  0  0  0  0  0  0  0
   22.9810   32.6404   37.7466 C   0  0  0  0  0  0  0  0  0  0  0  0
   23.9709   31.8374   38.5038 O   0  0  0  0  0  0  0  0  0  0  0  0
   15.4629   27.3002   35.2497 C   0  0  2  0  0  0  0  0  0  0  0  0
   14.4455   28.0378   35.9361 O   0  0  0  0  0  0  0  0  0  0  0  0
   22.2323   29.4498   38.8303 C   0  0  1  0  0  0  0  0  0  0  0  0
   22.2074   30.6567   39.6412 O   0  0  0  0  0  0  0  0  0  0  0  0
   15.4257   25.8758   35.7580 C   0  0  0  0  0  0  0  0  0  0  0  0
   21.5097   34.6933   37.7413 C   0  0  0  0  0  0  0  0  0  0  0  0
   20.0902   34.5404   40.9024 C   0  0  0  0  0  0  0  0  0  0  0  0
  1  2  1  1  0  0  0
  1  6  1  0  0  0  0
  1 23  1  0  0  0  0
  3  4  1  6  0  0  0
  3  8  1  0  0  0  0
  3 30  1  0  0  0  0
  5  9  1  0  0  0  0
  5 27  1  0  0  0  0
  5 31  1  6  0  0  0
  6  7  1  1  0  0  0
  6 11  1  0  0  0  0
  8 13  1  0  0  0  0
  9 10  1  1  0  0  0
  9 15  1  0  0  0  0
 11 12  1  6  0  0  0
 11 17  1  0  0  0  0
 13 14  1  6  0  0  0
 13 19  1  0  0  0  0
 15 16  1  1  0  0  0
 15 20  1  0  0  0  0
 16 34  1  0  0  0  0
 17 18  1  1  0  0  0
 17 22  1  0  0  0  0
 19  2  1  1  0  0  0
 19 24  1  0  0  0  0
 20 21  1  1  0  0  0
 20 26  1  0  0  0  0
 20 33  1  0  0  0  0
 22 23  1  6  0  0  0
 22 28  1  0  0  0  0
 24 25  1  6  0  0  0
 24 30  1  0  0  0  0
 26 27  1  0  0  0  0
 28 29  1  1  0  0  0
 28 32  1  0  0  0  0
 30 31  1  1  0  0  0
M  END
>  <CHROM.1>
-73.78670381,-110.59848176,-124.60506727,-74.71167398,93.13822353,178.55455989
20.37980785,30.04418665,37.62613598,-2.48361520,-0.63041831,0.06539655

>  <Name>
ligand

>  <RI>
0

>  <Rbt.Current_Directory>
/home/itssahil/PROJECTS/Mol_Feturizer/New_Systems/rnas/4p3s

>  <Rbt.Executable>
rbdock ($Id: //depot/dev/client3/rdock/2013.1/src/exe/rbdock.cxx#4 $)

>  <Rbt.Library>
libRbt.so (2013.1, Build901 2013/11/27)

>  <Rbt.Parameter_File>
/export/apps/rDock/src/rDock_2013.1_src/data/scripts/dock_solv.prm

>  <Rbt.Receptor>
prm/pocket_docking_5.prm

>  <SCORE>
-5.68523

>  <SCORE.INTER>
-6.0957

>  <SCORE.INTER.CONST>
1

>  <SCORE.INTER.POLAR>
0

>  <SCORE.INTER.ROT>
6

>  <SCORE.INTER.SOLV>
16.8116

>  <SCORE.INTER.VDW>
-17.2676

>  <SCORE.INTER.norm>
-0.179285

>  <SCORE.INTRA>
0.410469

>  <SCORE.INTRA.DIHEDRAL>
-2.00514

>  <SCORE.INTRA.DIHEDRAL.0>
15.8194

>  <SCORE.INTRA.POLAR>
0

>  <SCORE.INTRA.POLAR.0>
0

>  <SCORE.INTRA.REPUL>
0

>  <SCORE.INTRA.REPUL.0>
0

>  <SCORE.INTRA.SOLV>
2.1888

>  <SCORE.INTRA.SOLV.lig_0>
-71.9159

>  <SCORE.INTRA.VDW>
0.318641

>  <SCORE.INTRA.VDW.0>
-3.53918

>  <SCORE.INTRA.norm>
0.0120726

>  <SCORE.RESTR>
0

>  <SCORE.RESTR.CAVITY>
0

>  <SCORE.RESTR.norm>
0

>  <SCORE.SYSTEM>
0

>  <SCORE.SYSTEM.CONST>
0

>  <SCORE.SYSTEM.DIHEDRAL>
0

>  <SCORE.SYSTEM.SOLV>
0

>  <SCORE.SYSTEM.norm>
0

>  <SCORE.heavy>
34

>  <SCORE.norm>
-0.167213

>  <RMSD>
3.043

$$$$
ligand
 OpenBabel01301917533D
libRbt.so/2013.1/901 2013/11/27
 34 36  0  0  0  0  0  0  0  0999 V2000
   19.2658   25.9165   35.6335 C   0  0  2  0  0  0  0  0  0  0  0  0
   19.6331   27.2525   35.2750 O   0  0  0  0  0  0  0  0  0  0  0  0
   22.2519   29.5927   37.7383 C   0  0  2  0  0  0  0  0  0  0  0  0
   23.4606   30.1266   38.3806 N   0  0  0  0  0  0  0  0  0  0  0  0
   23.2519   31.9222   35.0473 C   0  0  2  0  0  0  0  0  0  0  0  0
   19.2671   25.0420   34.3236 C   0  0  2  0  0  0  0  0  0  0  0  0
   20.5934   25.0541   33.6857 N   0  0  0  0  0  0  0  0  0  0  0  0
   22.2335   28.0386   37.9699 C   0  0  0  0  0  0  0  0  0  0  0  0
   23.4361   33.4203   35.5130 C   0  0  2  0  0  0  0  0  0  0  0  0
   23.9690   33.4658   36.8255 O   0  0  0  0  0  0  0  0  0  0  0  0
   18.1888   25.5639   33.3267 C   0  0  1  0  0  0  0  0  0  0  0  0
   18.1867   24.7673   32.1277 O   0  0  0  0  0  0  0  0  0  0  0  0
   20.9325   27.4720   37.3003 C   0  0  2  0  0  0  0  0  0  0  0  0
   20.8515   25.9939   37.4765 N   0  0  0  0  0  0  0  0  0  0  0  0
   22.0272   34.1243   35.4710 C   0  0  1  0  0  0  0  0  0  0  0  0
   22.1243   35.5239   35.9319 N   0  0  0  0  0  0  0  0  0  0  0  0
   16.8141   25.5322   34.0347 C   0  0  2  0  0  0  0  0  0  0  0  0
   15.8062   25.9969   33.1312 O   0  0  0  0  0  0  0  0  0  0  0  0
   20.9053   27.7985   35.7765 C   0  0  2  0  0  0  0  0  0  0  0  0
   21.4746   34.0694   34.0117 C   0  0  1  0  0  0  0  0  0  0  0  0
   22.3682   34.7850   33.1651 O   0  0  0  0  0  0  0  0  0  0  0  0
   16.8900   26.4360   35.3399 C   0  0  2  0  0  0  0  0  0  0  0  0
   17.9441   25.9456   36.2556 O   0  0  0  0  0  0  0  0  0  0  0  0
   20.9926   29.3369   35.5834 C   0  0  2  0  0  0  0  0  0  0  0  0
   20.9977   29.6062   34.1830 O   0  0  0  0  0  0  0  0  0  0  0  0
   21.3918   32.5762   33.5589 C   0  0  0  0  0  0  0  0  0  0  0  0
   22.7079   31.9035   33.6752 O   0  0  0  0  0  0  0  0  0  0  0  0
   15.5490   26.4647   36.1280 C   0  0  2  0  0  0  0  0  0  0  0  0
   14.6304   25.5436   35.5297 O   0  0  0  0  0  0  0  0  0  0  0  0
   22.2951   29.9203   36.1849 C   0  0  1  0  0  0  0  0  0  0  0  0
   22.2747   31.3599   35.9805 O   0  0  0  0  0  0  0  0  0  0  0  0
   14.9072   27.8345   36.1139 C   0  0  0  0  0  0  0  0  0  0  0  0
   20.0946   34.7176   33.8915 C   0  0  0  0  0  0  0  0  0  0  0  0
   22.1026   35.5060   37.4151 C   0  0  0  0  0  0  0  0  0  0  0  0
  1  2  1  6  0  0  0
  1  6  1  0  0  0  0
  1 23  1  0  0  0  0
  3  4  1  1  0  0  0
  3  8  1  0  0  0  0
  3 30  1  0  0  0  0
  5  9  1  0  0  0  0
  5 27  1  0  0  0  0
  5 31  1  1  0  0  0
  6  7  1  6  0  0  0
  6 11  1  0  0  0  0
  8 13  1  0  0  0  0
  9 10  1  1  0  0  0
  9 15  1  0  0  0  0
 11 12  1  6  0  0  0
 11 17  1  0  0  0  0
 13 14  1  6  0  0  0
 13 19  1  0  0  0  0
 15 16  1  6  0  0  0
 15 20  1  0  0  0  0
 16 34  1  0  0  0  0
 17 18  1  6  0  0  0
 17 22  1  0  0  0  0
 19  2  1  1  0  0  0
 19 24  1  0  0  0  0
 20 21  1  6  0  0  0
 20 26  1  0  0  0  0
 20 33  1  0  0  0  0
 22 23  1  1  0  0  0
 22 28  1  0  0  0  0
 24 25  1  6  0  0  0
 24 30  1  0  0  0  0
 26 27  1  0  0  0  0
 28 29  1  6  0  0  0
 28 32  1  0  0  0  0
 30 31  1  1  0  0  0
M  END
>  <CHROM.1>
-114.01367896,-47.79579524,-81.89419543,5.97272846,132.52170802,-155.11248170
20.26206460,29.38583372,35.32552224,-2.27141041,-0.56279127,-0.33806144

>  <Name>
ligand

>  <RI>
0

>  <Rbt.Current_Directory>
/home/itssahil/PROJECTS/Mol_Feturizer/New_Systems/rnas/4p3s

>  <Rbt.Executable>
rbdock ($Id: //depot/dev/client3/rdock/2013.1/src/exe/rbdock.cxx#4 $)

>  <Rbt.Library>
libRbt.so (2013.1, Build901 2013/11/27)

>  <Rbt.Parameter_File>
/export/apps/rDock/src/rDock_2013.1_src/data/scripts/dock_solv.prm

>  <Rbt.Receptor>
prm/blind_docking_80.prm

>  <SCORE>
17.914

>  <SCORE.INTER>
4.34011

>  <SCORE.INTER.CONST>
1

>  <SCORE.INTER.POLAR>
0

>  <SCORE.INTER.ROT>
6

>  <SCORE.INTER.SOLV>
25.6492

>  <SCORE.INTER.VDW>
-13.2563

>  <SCORE.INTER.norm>
0.12765

>  <SCORE.INTRA>
9.90325

>  <SCORE.INTRA.DIHEDRAL>
6.56693

>  <SCORE.INTRA.DIHEDRAL.0>
15.8194

>  <SCORE.INTRA.POLAR>
0

>  <SCORE.INTRA.POLAR.0>
0

>  <SCORE.INTRA.REPUL>
0

>  <SCORE.INTRA.REPUL.0>
0

>  <SCORE.INTRA.SOLV>
2.0329

>  <SCORE.INTRA.SOLV.lig_0>
-71.9159

>  <SCORE.INTRA.VDW>
5.60333

>  <SCORE.INTRA.VDW.0>
-3.53918

>  <SCORE.INTRA.norm>
0.291272

>  <SCORE.RESTR>
3.67063

>  <SCORE.RESTR.CAVITY>
3.67063

>  <SCORE.RESTR.norm>
0.10796

>  <SCORE.SYSTEM>
0

>  <SCORE.SYSTEM.CONST>
0

>  <SCORE.SYSTEM.DIHEDRAL>
0

>  <SCORE.SYSTEM.SOLV>
0

>  <SCORE.SYSTEM.norm>
0

>  <SCORE.heavy>
34

>  <SCORE.norm>
0.526882

>  <RMSD>
3.056

$$$$
ligand
 OpenBabel01301917533D
libRbt.so/2013.1/901 2013/11/27
 34 36  0  0  0  0  0  0  0  0999 V2000
   19.5976   26.1893   36.3817 C   0  0  2  0  0  0  0  0  0  0  0  0
   20.6355   26.9725   35.7837 O   0  0  0  0  0  0  0  0  0  0  0  0
   22.2145   28.9272   39.2605 C   0  0  2  0  0  0  0  0  0  0  0  0
   23.1493   29.4836   40.2480 N   0  0  0  0  0  0  0  0  0  0  0  0
   23.0351   32.0974   38.2956 C   0  0  2  0  0  0  0  0  0  0  0  0
   18.9226   25.3275   35.2492 C   0  0  2  0  0  0  0  0  0  0  0  0
   19.9102   24.4541   34.5952 N   0  0  0  0  0  0  0  0  0  0  0  0
   22.5914   27.4173   39.0424 C   0  0  0  0  0  0  0  0  0  0  0  0
   22.3222   33.5029   38.1877 C   0  0  2  0  0  0  0  0  0  0  0  0
   21.3681   33.6518   39.2249 O   0  0  0  0  0  0  0  0  0  0  0  0
   18.2485   26.2568   34.1952 C   0  0  1  0  0  0  0  0  0  0  0  0
   17.6304   25.4731   33.1579 O   0  0  0  0  0  0  0  0  0  0  0  0
   21.5805   26.8189   38.0022 C   0  0  2  0  0  0  0  0  0  0  0  0
   21.8834   25.3828   37.7409 N   0  0  0  0  0  0  0  0  0  0  0  0
   21.6177   33.5894   36.7811 C   0  0  1  0  0  0  0  0  0  0  0  0
   20.8990   34.8706   36.6303 N   0  0  0  0  0  0  0  0  0  0  0  0
   17.2193   27.1532   34.9226 C   0  0  2  0  0  0  0  0  0  0  0  0
   16.5791   28.0072   33.9693 O   0  0  0  0  0  0  0  0  0  0  0  0
   21.6441   27.5991   36.6544 C   0  0  2  0  0  0  0  0  0  0  0  0
   22.6959   33.4357   35.6620 C   0  0  1  0  0  0  0  0  0  0  0  0
   23.6201   34.5126   35.7769 O   0  0  0  0  0  0  0  0  0  0  0  0
   17.9726   27.9908   36.0438 C   0  0  2  0  0  0  0  0  0  0  0  0
   18.6360   27.0902   37.0128 O   0  0  0  0  0  0  0  0  0  0  0  0
   21.3328   29.0975   36.9178 C   0  0  2  0  0  0  0  0  0  0  0  0
   21.4284   29.7928   35.6764 O   0  0  0  0  0  0  0  0  0  0  0  0
   23.4366   32.0740   35.8581 C   0  0  0  0  0  0  0  0  0  0  0  0
   24.0306   31.9733   37.2128 O   0  0  0  0  0  0  0  0  0  0  0  0
   17.0156   28.9250   36.8386 C   0  0  2  0  0  0  0  0  0  0  0  0
   15.8765   28.1741   37.2730 O   0  0  0  0  0  0  0  0  0  0  0  0
   22.3485   29.7334   37.8988 C   0  0  1  0  0  0  0  0  0  0  0  0
   21.9625   31.1204   38.1032 O   0  0  0  0  0  0  0  0  0  0  0  0
   16.5166   30.0800   35.9985 C   0  0  0  0  0  0  0  0  0  0  0  0
   22.0858   33.4889   34.2606 C   0  0  0  0  0  0  0  0  0  0  0  0
   21.8287   35.9523   37.0382 C   0  0  0  0  0  0  0  0  0  0  0  0
  1  2  1  6  0  0  0
  1  6  1  0  0  0  0
  1 23  1  0  0  0  0
  3  4  1  1  0  0  0
  3  8  1  0  0  0  0
  3 30  1  0  0  0  0
  5  9  1  0  0  0  0
  5 27  1  0  0  0  0
  5 31  1  6  0  0  0
  6  7  1  6  0  0  0
  6 11  1  0  0  0  0
  8 13  1  0  0  0  0
  9 10  1  1  0  0  0
  9 15  1  0  0  0  0
 11 12  1  6  0  0  0
 11 17  1  0  0  0  0
 13 14  1  6  0  0  0
 13 19  1  0  0  0  0
 15 16  1  6  0  0  0
 15 20  1  0  0  0  0
 16 34  1  0  0  0  0
 17 18  1  6  0  0  0
 17 22  1  0  0  0  0
 19  2  1  6  0  0  0
 19 24  1  0  0  0  0
 20 21  1  1  0  0  0
 20 26  1  0  0  0  0
 20 33  1  0  0  0  0
 22 23  1  1  0  0  0
 22 28  1  0  0  0  0
 24 25  1  6  0  0  0
 24 30  1  0  0  0  0
 26 27  1  0  0  0  0
 28 29  1  6  0  0  0
 28 32  1  0  0  0  0
 30 31  1  1  0  0  0
M  END
>  <CHROM.1>
-164.39677106,19.40466790,48.35008247,49.45704144,99.02256761,168.69195815
20.61958514,29.63926072,36.62373551,-2.19940899,-0.55634172,-0.13134013

>  <Name>
ligand

>  <RI>
0

>  <Rbt.Current_Directory>
/home/itssahil/PROJECTS/Mol_Feturizer/New_Systems/rnas/4p3s

>  <Rbt.Executable>
rbdock ($Id: //depot/dev/client3/rdock/2013.1/src/exe/rbdock.cxx#4 $)

>  <Rbt.Library>
libRbt.so (2013.1, Build901 2013/11/27)

>  <Rbt.Parameter_File>
/export/apps/rDock/src/rDock_2013.1_src/data/scripts/dock_solv.prm

>  <Rbt.Receptor>
prm/pocket_docking_2.prm

>  <SCORE>
11.5755

>  <SCORE.INTER>
1.17112

>  <SCORE.INTER.CONST>
1

>  <SCORE.INTER.POLAR>
0

>  <SCORE.INTER.ROT>
6

>  <SCORE.INTER.SOLV>
17.1539

>  <SCORE.INTER.VDW>
-12.5372

>  <SCORE.INTER.norm>
0.0344448

>  <SCORE.INTRA>
9.3201

>  <SCORE.INTRA.DIHEDRAL>
-2.84127

>  <SCORE.INTRA.DIHEDRAL.0>
15.8194

>  <SCORE.INTRA.POLAR>
0

>  <SCORE.INTRA.POLAR.0>
0

>  <SCORE.INTRA.REPUL>
0

>  <SCORE.INTRA.REPUL.0>
0

>  <SCORE.INTRA.SOLV>
1.37699

>  <SCORE.INTRA.SOLV.lig_0>
-71.9159

>  <SCORE.INTRA.VDW>
10.0522

>  <SCORE.INTRA.VDW.0>
-3.53918

>  <SCORE.INTRA.norm>
0.274121

>  <SCORE.RESTR>
1.0843

>  <SCORE.RESTR.CAVITY>
1.0843

>  <SCORE.RESTR.norm>
0.0318913

>  <SCORE.SYSTEM>
0

>  <SCORE.SYSTEM.CONST>
0

>  <SCORE.SYSTEM.DIHEDRAL>
0

>  <SCORE.SYSTEM.SOLV>
0

>  <SCORE.SYSTEM.norm>
0

>  <SCORE.heavy>
34

>  <SCORE.norm>
0.340457

>  <RMSD>
3.130

$$$$
ligand
 OpenBabel01301917533D
libRbt.so/2013.1/901 2013/11/27
 34 36  0  0  0  0  0  0  0  0999 V2000
   20.3761   27.1417   37.0463 C   0  0  2  0  0  0  0  0  0  0  0  0
   21.7317   26.9729   36.6195 O   0  0  0  0  0  0  0  0  0  0  0  0
   23.6021   29.2150   39.7622 C   0  0  2  0  0  0  0  0  0  0  0  0
   24.6133   29.8909   40.5865 N   0  0  0  0  0  0  0  0  0  0  0  0
   24.0195   32.3805   38.6295 C   0  0  2  0  0  0  0  0  0  0  0  0
   19.5283   25.9503   36.4612 C   0  0  2  0  0  0  0  0  0  0  0  0
   20.0530   24.6556   36.9244 N   0  0  0  0  0  0  0  0  0  0  0  0
   24.0710   27.7301   39.5516 C   0  0  0  0  0  0  0  0  0  0  0  0
   23.2080   33.6880   38.9865 C   0  0  2  0  0  0  0  0  0  0  0  0
   22.5967   33.5559   40.2583 O   0  0  0  0  0  0  0  0  0  0  0  0
   19.5302   26.0024   34.9035 C   0  0  1  0  0  0  0  0  0  0  0  0
   18.7564   24.9148   34.3644 O   0  0  0  0  0  0  0  0  0  0  0  0
   22.9810   27.0038   38.6875 C   0  0  2  0  0  0  0  0  0  0  0  0
   23.3647   25.5844   38.4417 N   0  0  0  0  0  0  0  0  0  0  0  0
   22.1134   33.9054   37.8744 C   0  0  1  0  0  0  0  0  0  0  0  0
   21.2925   35.0970   38.1698 N   0  0  0  0  0  0  0  0  0  0  0  0
   18.9706   27.3746   34.4608 C   0  0  2  0  0  0  0  0  0  0  0  0
   18.9523   27.4387   33.0313 O   0  0  0  0  0  0  0  0  0  0  0  0
   22.7939   27.7186   37.3151 C   0  0  2  0  0  0  0  0  0  0  0  0
   22.8188   34.0606   36.4900 C   0  0  1  0  0  0  0  0  0  0  0  0
   23.6559   35.2114   36.5382 O   0  0  0  0  0  0  0  0  0  0  0  0
   19.8762   28.5218   35.0853 C   0  0  2  0  0  0  0  0  0  0  0  0
   19.8904   28.4318   36.5624 O   0  0  0  0  0  0  0  0  0  0  0  0
   22.3969   29.1995   37.5618 C   0  0  2  0  0  0  0  0  0  0  0  0
   22.2630   29.8375   36.2934 O   0  0  0  0  0  0  0  0  0  0  0  0
   23.6799   32.7858   36.2163 C   0  0  0  0  0  0  0  0  0  0  0  0
   24.6549   32.5490   37.3079 O   0  0  0  0  0  0  0  0  0  0  0  0
   19.3886   29.9477   34.6988 C   0  0  2  0  0  0  0  0  0  0  0  0
   20.4046   30.9001   35.0316 O   0  0  0  0  0  0  0  0  0  0  0  0
   23.4804   29.9605   38.3652 C   0  0  1  0  0  0  0  0  0  0  0  0
   23.0109   31.3217   38.5683 O   0  0  0  0  0  0  0  0  0  0  0  0
   18.1268   30.3393   35.4358 C   0  0  0  0  0  0  0  0  0  0  0  0
   21.8180   34.2562   35.3502 C   0  0  0  0  0  0  0  0  0  0  0  0
   19.8705   34.7106   37.9985 C   0  0  0  0  0  0  0  0  0  0  0  0
  1  2  1  6  0  0  0
  1  6  1  0  0  0  0
  1 23  1  0  0  0  0
  3  4  1  1  0  0  0
  3  8  1  0  0  0  0
  3 30  1  0  0  0  0
  5  9  1  0  0  0  0
  5 27  1  0  0  0  0
  5 31  1  6  0  0  0
  6  7  1  6  0  0  0
  6 11  1  0  0  0  0
  8 13  1  0  0  0  0
  9 10  1  1  0  0  0
  9 15  1  0  0  0  0
 11 12  1  6  0  0  0
 11 17  1  0  0  0  0
 13 14  1  6  0  0  0
 13 19  1  0  0  0  0
 15 16  1  1  0  0  0
 15 20  1  0  0  0  0
 16 34  1  0  0  0  0
 17 18  1  6  0  0  0
 17 22  1  0  0  0  0
 19  2  1  6  0  0  0
 19 24  1  0  0  0  0
 20 21  1  1  0  0  0
 20 26  1  0  0  0  0
 20 33  1  0  0  0  0
 22 23  1  1  0  0  0
 22 28  1  0  0  0  0
 24 25  1  6  0  0  0
 24 30  1  0  0  0  0
 26 27  1  0  0  0  0
 28 29  1  1  0  0  0
 28 32  1  0  0  0  0
 30 31  1  1  0  0  0
M  END
>  <CHROM.1>
-163.24227568,74.50520635,-132.72114481,-166.96003707,96.38492778,-174.92404836
21.68562347,29.98164142,37.01706971,-2.09748517,-0.78221573,-0.08483195

>  <Name>
ligand

>  <RI>
0

>  <Rbt.Current_Directory>
/home/itssahil/PROJECTS/Mol_Feturizer/New_Systems/rnas/4p3s

>  <Rbt.Executable>
rbdock ($Id: //depot/dev/client3/rdock/2013.1/src/exe/rbdock.cxx#4 $)

>  <Rbt.Library>
libRbt.so (2013.1, Build901 2013/11/27)

>  <Rbt.Parameter_File>
/export/apps/rDock/src/rDock_2013.1_src/data/scripts/dock_solv.prm

>  <Rbt.Receptor>
prm/pocket_docking_2.prm

>  <SCORE>
-3.88434

>  <SCORE.INTER>
-4.46362

>  <SCORE.INTER.CONST>
1

>  <SCORE.INTER.POLAR>
0

>  <SCORE.INTER.ROT>
6

>  <SCORE.INTER.SOLV>
20.9806

>  <SCORE.INTER.VDW>
-17.5693

>  <SCORE.INTER.norm>
-0.131283

>  <SCORE.INTRA>
-2.01242

>  <SCORE.INTRA.DIHEDRAL>
-6.90596

>  <SCORE.INTRA.DIHEDRAL.0>
15.8194

>  <SCORE.INTRA.POLAR>
0

>  <SCORE.INTRA.POLAR.0>
0

>  <SCORE.INTRA.REPUL>
0

>  <SCORE.INTRA.REPUL.0>
0

>  <SCORE.INTRA.SOLV>
0.92767

>  <SCORE.INTRA.SOLV.lig_0>
-71.9159

>  <SCORE.INTRA.VDW>
0.976726

>  <SCORE.INTRA.VDW.0>
-3.53918

>  <SCORE.INTRA.norm>
-0.0591888

>  <SCORE.RESTR>
2.5917

>  <SCORE.RESTR.CAVITY>
2.5917

>  <SCORE.RESTR.norm>
0.0762264

>  <SCORE.SYSTEM>
0

>  <SCORE.SYSTEM.CONST>
0

>  <SCORE.SYSTEM.DIHEDRAL>
0

>  <SCORE.SYSTEM.SOLV>
0

>  <SCORE.SYSTEM.norm>
0

>  <SCORE.heavy>
34

>  <SCORE.norm>
-0.114245

>  <RMSD>
3.326

$$$$
ligand
 OpenBabel01301917533D
libRbt.so/2013.1/901 2013/11/27
 34 36  0  0  0  0  0  0  0  0999 V2000
   16.9312   27.0727   34.8927 C   0  0  2  0  0  0  0  0  0  0  0  0
   17.3517   26.6207   36.1839 O   0  0  0  0  0  0  0  0  0  0  0  0
   18.7620   30.4172   37.5981 C   0  0  2  0  0  0  0  0  0  0  0  0
   19.2575   31.4855   38.4766 N   0  0  0  0  0  0  0  0  0  0  0  0
   22.2642   28.9572   36.9227 C   0  0  2  0  0  0  0  0  0  0  0  0
   15.6009   26.3161   34.5203 C   0  0  2  0  0  0  0  0  0  0  0  0
   14.5521   26.5756   35.5196 N   0  0  0  0  0  0  0  0  0  0  0  0
   17.4385   29.8532   38.2300 C   0  0  0  0  0  0  0  0  0  0  0  0
   22.6189   28.8494   38.4583 C   0  0  2  0  0  0  0  0  0  0  0  0
   21.5725   28.2013   39.1609 O   0  0  0  0  0  0  0  0  0  0  0  0
   15.8662   24.7845   34.4078 C   0  0  1  0  0  0  0  0  0  0  0  0
   14.6526   24.0889   34.0676 O   0  0  0  0  0  0  0  0  0  0  0  0
   16.8998   28.7256   37.2810 C   0  0  2  0  0  0  0  0  0  0  0  0
   15.6420   28.1378   37.8241 N   0  0  0  0  0  0  0  0  0  0  0  0
   22.8306   30.3073   39.0167 C   0  0  1  0  0  0  0  0  0  0  0  0
   23.1307   30.2787   40.4624 N   0  0  0  0  0  0  0  0  0  0  0  0
   16.9698   24.5571   33.3483 C   0  0  2  0  0  0  0  0  0  0  0  0
   17.2204   23.1539   33.2205 O   0  0  0  0  0  0  0  0  0  0  0  0
   17.9541   27.5898   37.1146 C   0  0  2  0  0  0  0  0  0  0  0  0
   23.9968   30.9880   38.2326 C   0  0  1  0  0  0  0  0  0  0  0  0
   25.1861   30.2370   38.4537 O   0  0  0  0  0  0  0  0  0  0  0  0
   18.2761   25.3456   33.7933 C   0  0  2  0  0  0  0  0  0  0  0  0
   17.9936   26.7918   33.9298 O   0  0  0  0  0  0  0  0  0  0  0  0
   19.2694   28.1939   36.5521 C   0  0  2  0  0  0  0  0  0  0  0  0
   20.2254   27.1416   36.4393 O   0  0  0  0  0  0  0  0  0  0  0  0
   23.6455   30.9943   36.7101 C   0  0  0  0  0  0  0  0  0  0  0  0
   23.3738   29.6239   36.2136 O   0  0  0  0  0  0  0  0  0  0  0  0
   19.4482   25.1816   32.7836 C   0  0  2  0  0  0  0  0  0  0  0  0
   18.9540   25.3681   31.4527 O   0  0  0  0  0  0  0  0  0  0  0  0
   19.8579   29.2723   37.4951 C   0  0  1  0  0  0  0  0  0  0  0  0
   21.0652   29.7952   36.8758 O   0  0  0  0  0  0  0  0  0  0  0  0
   20.0771   23.8076   32.8563 C   0  0  0  0  0  0  0  0  0  0  0  0
   24.2520   32.4201   38.7045 C   0  0  0  0  0  0  0  0  0  0  0  0
   21.9902   30.9152   41.1658 C   0  0  0  0  0  0  0  0  0  0  0  0
  1  2  1  1  0  0  0
  1  6  1  0  0  0  0
  1 23  1  0  0  0  0
  3  4  1  1  0  0  0
  3  8  1  0  0  0  0
  3 30  1  0  0  0  0
  5  9  1  0  0  0  0
  5 27  1  0  0  0  0
  5 31  1  1  0  0  0
  6  7  1  1  0  0  0
  6 11  1  0  0  0  0
  8 13  1  0  0  0  0
  9 10  1  1  0  0  0
  9 15  1  0  0  0  0
 11 12  1  6  0  0  0
 11 17  1  0  0  0  0
 13 14  1  1  0  0  0
 13 19  1  0  0  0  0
 15 16  1  1  0  0  0
 15 20  1  0  0  0  0
 16 34  1  0  0  0  0
 17 18  1  1  0  0  0
 17 22  1  0  0  0  0
 19  2  1  6  0  0  0
 19 24  1  0  0  0  0
 20 21  1  1  0  0  0
 20 26  1  0  0  0  0
 20 33  1  0  0  0  0
 22 23  1  6  0  0  0
 22 28  1  0  0  0  0
 24 25  1  1  0  0  0
 24 30  1  0  0  0  0
 26 27  1  0  0  0  0
 28 29  1  6  0  0  0
 28 32  1  0  0  0  0
 30 31  1  6  0  0  0
M  END
>  <CHROM.1>
-142.60713761,56.69779453,-113.47239756,45.90701821,168.91749857,-64.53051419
19.58978816,27.97209518,36.40024590,2.28540752,-0.15033451,-2.29178491

>  <Name>
ligand

>  <RI>
0

>  <Rbt.Current_Directory>
/home/itssahil/PROJECTS/Mol_Feturizer/New_Systems/rnas/4p3s

>  <Rbt.Executable>
rbdock ($Id: //depot/dev/client3/rdock/2013.1/src/exe/rbdock.cxx#4 $)

>  <Rbt.Library>
libRbt.so (2013.1, Build901 2013/11/27)

>  <Rbt.Parameter_File>
/export/apps/rDock/src/rDock_2013.1_src/data/scripts/dock_solv.prm

>  <Rbt.Receptor>
prm/pocket_docking_4.prm

>  <SCORE>
-10.2041

>  <SCORE.INTER>
-9.51963

>  <SCORE.INTER.CONST>
1

>  <SCORE.INTER.POLAR>
0

>  <SCORE.INTER.ROT>
6

>  <SCORE.INTER.SOLV>
17.9002

>  <SCORE.INTER.VDW>
-19.9131

>  <SCORE.INTER.norm>
-0.279989

>  <SCORE.INTRA>
-0.684486

>  <SCORE.INTRA.DIHEDRAL>
-8.17418

>  <SCORE.INTRA.DIHEDRAL.0>
15.8194

>  <SCORE.INTRA.POLAR>
0

>  <SCORE.INTRA.POLAR.0>
0

>  <SCORE.INTRA.REPUL>
0

>  <SCORE.INTRA.REPUL.0>
0

>  <SCORE.INTRA.SOLV>
3.27332

>  <SCORE.INTRA.SOLV.lig_0>
-71.9159

>  <SCORE.INTRA.VDW>
1.76594

>  <SCORE.INTRA.VDW.0>
-3.53918

>  <SCORE.INTRA.norm>
-0.0201319

>  <SCORE.RESTR>
0

>  <SCORE.RESTR.CAVITY>
0

>  <SCORE.RESTR.norm>
0

>  <SCORE.SYSTEM>
0

>  <SCORE.SYSTEM.CONST>
0

>  <SCORE.SYSTEM.DIHEDRAL>
0

>  <SCORE.SYSTEM.SOLV>
0

>  <SCORE.SYSTEM.norm>
0

>  <SCORE.heavy>
34

>  <SCORE.norm>
-0.300121

>  <RMSD>
3.328

$$$$
ligand
 OpenBabel01301917533D
libRbt.so/2013.1/901 2013/11/27
 34 36  0  0  0  0  0  0  0  0999 V2000
   20.0806   26.9586   37.0728 C   0  0  2  0  0  0  0  0  0  0  0  0
   21.3228   27.0978   36.3757 O   0  0  0  0  0  0  0  0  0  0  0  0
   23.5073   28.8704   39.6142 C   0  0  2  0  0  0  0  0  0  0  0  0
   24.6060   29.3802   40.4458 N   0  0  0  0  0  0  0  0  0  0  0  0
   24.1386   32.0981   38.7002 C   0  0  2  0  0  0  0  0  0  0  0  0
   19.1139   26.0938   36.1793 C   0  0  2  0  0  0  0  0  0  0  0  0
   19.6969   24.7709   35.9038 N   0  0  0  0  0  0  0  0  0  0  0  0
   23.8385   27.3793   39.2453 C   0  0  0  0  0  0  0  0  0  0  0  0
   23.4253   33.4840   38.9567 C   0  0  2  0  0  0  0  0  0  0  0  0
   22.7570   33.4697   40.2064 O   0  0  0  0  0  0  0  0  0  0  0  0
   18.8105   26.8343   34.8420 C   0  0  1  0  0  0  0  0  0  0  0  0
   17.9272   26.0472   34.0220 O   0  0  0  0  0  0  0  0  0  0  0  0
   22.6554   26.8297   38.3733 C   0  0  2  0  0  0  0  0  0  0  0  0
   22.9059   25.4138   37.9797 N   0  0  0  0  0  0  0  0  0  0  0  0
   22.3957   33.7296   37.7897 C   0  0  1  0  0  0  0  0  0  0  0  0
   21.6658   34.9976   37.9901 N   0  0  0  0  0  0  0  0  0  0  0  0
   18.1987   28.2148   35.1768 C   0  0  2  0  0  0  0  0  0  0  0  0
   17.9009   28.9074   33.9604 O   0  0  0  0  0  0  0  0  0  0  0  0
   22.4729   27.6851   37.0832 C   0  0  2  0  0  0  0  0  0  0  0  0
   23.1639   33.7533   36.4304 C   0  0  1  0  0  0  0  0  0  0  0  0
   24.0911   34.8336   36.4565 O   0  0  0  0  0  0  0  0  0  0  0  0
   19.2291   29.0268   36.0740 C   0  0  2  0  0  0  0  0  0  0  0  0
   19.5316   28.2896   37.3210 O   0  0  0  0  0  0  0  0  0  0  0  0
   22.2144   29.1629   37.4841 C   0  0  2  0  0  0  0  0  0  0  0  0
   22.0826   29.9279   36.2877 O   0  0  0  0  0  0  0  0  0  0  0  0
   23.9262   32.4004   36.2576 C   0  0  0  0  0  0  0  0  0  0  0  0
   24.8358   32.1441   37.4000 O   0  0  0  0  0  0  0  0  0  0  0  0
   18.6997   30.4354   36.4690 C   0  0  2  0  0  0  0  0  0  0  0  0
   18.5441   31.2292   35.2875 O   0  0  0  0  0  0  0  0  0  0  0  0
   23.3915   29.7533   38.2991 C   0  0  1  0  0  0  0  0  0  0  0  0
   23.0489   31.1225   38.6492 O   0  0  0  0  0  0  0  0  0  0  0  0
   19.6489   31.1635   37.3950 C   0  0  0  0  0  0  0  0  0  0  0  0
   22.2271   33.9682   35.2409 C   0  0  0  0  0  0  0  0  0  0  0  0
   20.3711   34.6680   38.6352 C   0  0  0  0  0  0  0  0  0  0  0  0
  1  2  1  6  0  0  0
  1  6  1  0  0  0  0
  1 23  1  0  0  0  0
  3  4  1  1  0  0  0
  3  8  1  0  0  0  0
  3 30  1  0  0  0  0
  5  9  1  0  0  0  0
  5 27  1  0  0  0  0
  5 31  1  6  0  0  0
  6  7  1  6  0  0  0
  6 11  1  0  0  0  0
  8 13  1  0  0  0  0
  9 10  1  1  0  0  0
  9 15  1  0  0  0  0
 11 12  1  6  0  0  0
 11 17  1  0  0  0  0
 13 14  1  6  0  0  0
 13 19  1  0  0  0  0
 15 16  1  1  0  0  0
 15 20  1  0  0  0  0
 16 34  1  0  0  0  0
 17 18  1  6  0  0  0
 17 22  1  0  0  0  0
 19  2  1  1  0  0  0
 19 24  1  0  0  0  0
 20 21  1  1  0  0  0
 20 26  1  0  0  0  0
 20 33  1  0  0  0  0
 22 23  1  1  0  0  0
 22 28  1  0  0  0  0
 24 25  1  6  0  0  0
 24 30  1  0  0  0  0
 26 27  1  0  0  0  0
 28 29  1  6  0  0  0
 28 32  1  0  0  0  0
 30 31  1  1  0  0  0
M  END
>  <CHROM.1>
-170.55222046,54.85679745,-96.87998000,-64.14538381,98.98106395,174.46681190
21.52310828,30.04418604,37.14032455,-2.18118486,-0.62324761,-0.07232453

>  <Name>
ligand

>  <RI>
0

>  <Rbt.Current_Directory>
/home/itssahil/PROJECTS/Mol_Feturizer/New_Systems/rnas/4p3s

>  <Rbt.Executable>
rbdock ($Id: //depot/dev/client3/rdock/2013.1/src/exe/rbdock.cxx#4 $)

>  <Rbt.Library>
libRbt.so (2013.1, Build901 2013/11/27)

>  <Rbt.Parameter_File>
/export/apps/rDock/src/rDock_2013.1_src/data/scripts/dock_solv.prm

>  <Rbt.Receptor>
prm/pocket_docking_3.prm

>  <SCORE>
-8.51564

>  <SCORE.INTER>
-4.33429

>  <SCORE.INTER.CONST>
1

>  <SCORE.INTER.POLAR>
0

>  <SCORE.INTER.ROT>
6

>  <SCORE.INTER.SOLV>
19.0198

>  <SCORE.INTER.VDW>
-16.8295

>  <SCORE.INTER.norm>
-0.127479

>  <SCORE.INTRA>
-4.18136

>  <SCORE.INTRA.DIHEDRAL>
-8.99273

>  <SCORE.INTRA.DIHEDRAL.0>
15.8194

>  <SCORE.INTRA.POLAR>
0

>  <SCORE.INTRA.POLAR.0>
0

>  <SCORE.INTRA.REPUL>
0

>  <SCORE.INTRA.REPUL.0>
0

>  <SCORE.INTRA.SOLV>
0.790326

>  <SCORE.INTRA.SOLV.lig_0>
-71.9159

>  <SCORE.INTRA.VDW>
-0.0801555

>  <SCORE.INTRA.VDW.0>
-3.53918

>  <SCORE.INTRA.norm>
-0.122981

>  <SCORE.RESTR>
0

>  <SCORE.RESTR.CAVITY>
0

>  <SCORE.RESTR.norm>
0

>  <SCORE.SYSTEM>
0

>  <SCORE.SYSTEM.CONST>
0

>  <SCORE.SYSTEM.DIHEDRAL>
0

>  <SCORE.SYSTEM.SOLV>
0

>  <SCORE.SYSTEM.norm>
0

>  <SCORE.heavy>
34

>  <SCORE.norm>
-0.25046

>  <RMSD>
3.359

$$$$
ligand
 OpenBabel01301917533D
libRbt.so/2013.1/901 2013/11/27
 34 36  0  0  0  0  0  0  0  0999 V2000
   20.0931   26.9829   37.1336 C   0  0  2  0  0  0  0  0  0  0  0  0
   21.3370   27.1039   36.4362 O   0  0  0  0  0  0  0  0  0  0  0  0
   23.5437   28.8593   39.6690 C   0  0  2  0  0  0  0  0  0  0  0  0
   24.6480   29.3653   40.4955 N   0  0  0  0  0  0  0  0  0  0  0  0
   24.1704   32.0851   38.8040 C   0  0  2  0  0  0  0  0  0  0  0  0
   19.1290   26.0942   36.2611 C   0  0  2  0  0  0  0  0  0  0  0  0
   19.7131   24.7645   36.0226 N   0  0  0  0  0  0  0  0  0  0  0  0
   23.8735   27.3707   39.2889 C   0  0  0  0  0  0  0  0  0  0  0  0
   23.4603   33.4719   39.0650 C   0  0  2  0  0  0  0  0  0  0  0  0
   22.7691   33.4459   40.3020 O   0  0  0  0  0  0  0  0  0  0  0  0
   18.8288   26.7985   34.9036 C   0  0  1  0  0  0  0  0  0  0  0  0
   17.9478   25.9893   34.1027 O   0  0  0  0  0  0  0  0  0  0  0  0
   22.6845   26.8252   38.4224 C   0  0  2  0  0  0  0  0  0  0  0  0
   22.9334   25.4119   38.0186 N   0  0  0  0  0  0  0  0  0  0  0  0
   22.4538   33.7382   37.8825 C   0  0  1  0  0  0  0  0  0  0  0  0
   21.7275   35.0079   38.0856 N   0  0  0  0  0  0  0  0  0  0  0  0
   18.2157   28.1872   35.1997 C   0  0  2  0  0  0  0  0  0  0  0  0
   17.9209   28.8469   33.9645 O   0  0  0  0  0  0  0  0  0  0  0  0
   22.4917   27.6880   37.1388 C   0  0  2  0  0  0  0  0  0  0  0  0
   23.2469   33.7744   36.5379 C   0  0  1  0  0  0  0  0  0  0  0  0
   24.1795   34.8488   36.5946 O   0  0  0  0  0  0  0  0  0  0  0  0
   19.2435   29.0233   36.0776 C   0  0  2  0  0  0  0  0  0  0  0  0
   19.5431   28.3199   37.3447 O   0  0  0  0  0  0  0  0  0  0  0  0
   22.2349   29.1632   37.5502 C   0  0  2  0  0  0  0  0  0  0  0  0
   22.0937   29.9351   36.3594 O   0  0  0  0  0  0  0  0  0  0  0  0
   24.0045   32.4193   36.3619 C   0  0  0  0  0  0  0  0  0  0  0  0
   24.8915   32.1433   37.5174 O   0  0  0  0  0  0  0  0  0  0  0  0
   18.7127   30.4418   36.4333 C   0  0  2  0  0  0  0  0  0  0  0  0
   18.5927   31.2150   35.2342 O   0  0  0  0  0  0  0  0  0  0  0  0
   23.4175   29.7499   38.3601 C   0  0  1  0  0  0  0  0  0  0  0  0
   23.0762   31.1167   38.7208 O   0  0  0  0  0  0  0  0  0  0  0  0
   19.6420   31.1812   37.3705 C   0  0  0  0  0  0  0  0  0  0  0  0
   22.3332   34.0097   35.3342 C   0  0  0  0  0  0  0  0  0  0  0  0
   20.4013   34.6742   38.6607 C   0  0  0  0  0  0  0  0  0  0  0  0
  1  2  1  6  0  0  0
  1  6  1  0  0  0  0
  1 23  1  0  0  0  0
  3  4  1  1  0  0  0
  3  8  1  0  0  0  0
  3 30  1  0  0  0  0
  5  9  1  0  0  0  0
  5 27  1  0  0  0  0
  5 31  1  6  0  0  0
  6  7  1  6  0  0  0
  6 11  1  0  0  0  0
  8 13  1  0  0  0  0
  9 10  1  1  0  0  0
  9 15  1  0  0  0  0
 11 12  1  6  0  0  0
 11 17  1  0  0  0  0
 13 14  1  6  0  0  0
 13 19  1  0  0  0  0
 15 16  1  1  0  0  0
 15 20  1  0  0  0  0
 16 34  1  0  0  0  0
 17 18  1  6  0  0  0
 17 22  1  0  0  0  0
 19  2  1  1  0  0  0
 19 24  1  0  0  0  0
 20 21  1  1  0  0  0
 20 26  1  0  0  0  0
 20 33  1  0  0  0  0
 22 23  1  1  0  0  0
 22 28  1  0  0  0  0
 24 25  1  6  0  0  0
 24 30  1  0  0  0  0
 26 27  1  0  0  0  0
 28 29  1  6  0  0  0
 28 32  1  0  0  0  0
 30 31  1  1  0  0  0
M  END
>  <CHROM.1>
-169.45907871,56.03680643,-98.73541660,-65.62223153,97.40614795,174.48417000
21.55630421,30.04139366,37.20036957,-2.19064040,-0.62521373,-0.07324007

>  <Name>
ligand

>  <RI>
0

>  <Rbt.Current_Directory>
/home/itssahil/PROJECTS/Mol_Feturizer/New_Systems/rnas/4p3s

>  <Rbt.Executable>
rbdock ($Id: //depot/dev/client3/rdock/2013.1/src/exe/rbdock.cxx#4 $)

>  <Rbt.Library>
libRbt.so (2013.1, Build901 2013/11/27)

>  <Rbt.Parameter_File>
/export/apps/rDock/src/rDock_2013.1_src/data/scripts/dock_solv.prm

>  <Rbt.Receptor>
prm/pocket_docking_3.prm

>  <SCORE>
-8.62182

>  <SCORE.INTER>
-4.37428

>  <SCORE.INTER.CONST>
1

>  <SCORE.INTER.POLAR>
0

>  <SCORE.INTER.ROT>
6

>  <SCORE.INTER.SOLV>
19.2454

>  <SCORE.INTER.VDW>
-16.9313

>  <SCORE.INTER.norm>
-0.128655

>  <SCORE.INTRA>
-4.24754

>  <SCORE.INTRA.DIHEDRAL>
-9.10449

>  <SCORE.INTRA.DIHEDRAL.0>
15.8194

>  <SCORE.INTRA.POLAR>
0

>  <SCORE.INTRA.POLAR.0>
0

>  <SCORE.INTRA.REPUL>
0

>  <SCORE.INTRA.REPUL.0>
0

>  <SCORE.INTRA.SOLV>
0.83041

>  <SCORE.INTRA.SOLV.lig_0>
-71.9159

>  <SCORE.INTRA.VDW>
-0.110496

>  <SCORE.INTRA.VDW.0>
-3.53918

>  <SCORE.INTRA.norm>
-0.124928

>  <SCORE.RESTR>
0

>  <SCORE.RESTR.CAVITY>
0

>  <SCORE.RESTR.norm>
0

>  <SCORE.SYSTEM>
0

>  <SCORE.SYSTEM.CONST>
0

>  <SCORE.SYSTEM.DIHEDRAL>
0

>  <SCORE.SYSTEM.SOLV>
0

>  <SCORE.SYSTEM.norm>
0

>  <SCORE.heavy>
34

>  <SCORE.norm>
-0.253583

>  <RMSD>
3.371

$$$$
ligand
 OpenBabel01301917533D
libRbt.so/2013.1/901 2013/11/27
 34 36  0  0  0  0  0  0  0  0999 V2000
   20.1258   26.9932   37.1404 C   0  0  2  0  0  0  0  0  0  0  0  0
   21.3777   27.1105   36.4569 O   0  0  0  0  0  0  0  0  0  0  0  0
   23.5502   28.8712   39.7099 C   0  0  2  0  0  0  0  0  0  0  0  0
   24.6458   29.3776   40.5476 N   0  0  0  0  0  0  0  0  0  0  0  0
   24.1864   32.1034   38.7988 C   0  0  2  0  0  0  0  0  0  0  0  0
   19.1646   26.1176   36.2514 C   0  0  2  0  0  0  0  0  0  0  0  0
   19.7419   24.7857   36.0092 N   0  0  0  0  0  0  0  0  0  0  0  0
   23.8817   27.3810   39.3377 C   0  0  0  0  0  0  0  0  0  0  0  0
   23.4737   33.4860   39.0741 C   0  0  2  0  0  0  0  0  0  0  0  0
   22.8176   33.4601   40.3301 O   0  0  0  0  0  0  0  0  0  0  0  0
   18.8836   26.8340   34.8961 C   0  0  1  0  0  0  0  0  0  0  0  0
   18.0054   26.0368   34.0802 O   0  0  0  0  0  0  0  0  0  0  0  0
   22.7018   26.8351   38.4592 C   0  0  2  0  0  0  0  0  0  0  0  0
   22.9529   25.4203   38.0622 N   0  0  0  0  0  0  0  0  0  0  0  0
   22.4325   33.7401   37.9192 C   0  0  1  0  0  0  0  0  0  0  0  0
   21.7028   35.0053   38.1376 N   0  0  0  0  0  0  0  0  0  0  0  0
   18.2771   28.2247   35.1961 C   0  0  2  0  0  0  0  0  0  0  0  0
   17.9998   28.8954   33.9627 O   0  0  0  0  0  0  0  0  0  0  0  0
   22.5253   27.6946   37.1710 C   0  0  2  0  0  0  0  0  0  0  0  0
   23.1874   33.7766   36.5528 C   0  0  1  0  0  0  0  0  0  0  0  0
   24.1133   34.8580   36.5792 O   0  0  0  0  0  0  0  0  0  0  0  0
   19.3015   29.0472   36.0907 C   0  0  2  0  0  0  0  0  0  0  0  0
   19.5829   28.3324   37.3556 O   0  0  0  0  0  0  0  0  0  0  0  0
   22.2664   29.1714   37.5753 C   0  0  2  0  0  0  0  0  0  0  0  0
   22.1402   29.9402   36.3808 O   0  0  0  0  0  0  0  0  0  0  0  0
   23.9499   32.4263   36.3610 C   0  0  0  0  0  0  0  0  0  0  0  0
   24.8709   32.1615   37.4923 O   0  0  0  0  0  0  0  0  0  0  0  0
   18.7768   30.4667   36.4513 C   0  0  2  0  0  0  0  0  0  0  0  0
   18.6377   31.2369   35.2523 O   0  0  0  0  0  0  0  0  0  0  0  0
   23.4405   29.7583   38.3971 C   0  0  1  0  0  0  0  0  0  0  0  0
   23.0975   31.1267   38.7500 O   0  0  0  0  0  0  0  0  0  0  0  0
   19.7213   31.2081   37.3715 C   0  0  0  0  0  0  0  0  0  0  0  0
   22.2388   34.0003   35.3743 C   0  0  0  0  0  0  0  0  0  0  0  0
   20.3706   34.6601   38.6915 C   0  0  0  0  0  0  0  0  0  0  0  0
  1  2  1  6  0  0  0
  1  6  1  0  0  0  0
  1 23  1  0  0  0  0
  3  4  1  1  0  0  0
  3  8  1  0  0  0  0
  3 30  1  0  0  0  0
  5  9  1  0  0  0  0
  5 27  1  0  0  0  0
  5 31  1  6  0  0  0
  6  7  1  6  0  0  0
  6 11  1  0  0  0  0
  8 13  1  0  0  0  0
  9 10  1  1  0  0  0
  9 15  1  0  0  0  0
 11 12  1  6  0  0  0
 11 17  1  0  0  0  0
 13 14  1  6  0  0  0
 13 19  1  0  0  0  0
 15 16  1  1  0  0  0
 15 20  1  0  0  0  0
 16 34  1  0  0  0  0
 17 18  1  6  0  0  0
 17 22  1  0  0  0  0
 19  2  1  1  0  0  0
 19 24  1  0  0  0  0
 20 21  1  1  0  0  0
 20 26  1  0  0  0  0
 20 33  1  0  0  0  0
 22 23  1  1  0  0  0
 22 28  1  0  0  0  0
 24 25  1  6  0  0  0
 24 30  1  0  0  0  0
 26 27  1  0  0  0  0
 28 29  1  6  0  0  0
 28 32  1  0  0  0  0
 30 31  1  1  0  0  0
M  END
>  <CHROM.1>
-170.10550053,56.01482352,-101.35362802,-63.95504258,99.42665774,175.02853718
21.57381295,30.05594015,37.21654740,-2.18302128,-0.63744378,-0.07120792

>  <Name>
ligand

>  <RI>
0

>  <Rbt.Current_Directory>
/home/itssahil/PROJECTS/Mol_Feturizer/New_Systems/rnas/4p3s

>  <Rbt.Executable>
rbdock ($Id: //depot/dev/client3/rdock/2013.1/src/exe/rbdock.cxx#4 $)

>  <Rbt.Library>
libRbt.so (2013.1, Build901 2013/11/27)

>  <Rbt.Parameter_File>
/export/apps/rDock/src/rDock_2013.1_src/data/scripts/dock_solv.prm

>  <Rbt.Receptor>
prm/pocket_docking_3.prm

>  <SCORE>
-8.61413

>  <SCORE.INTER>
-4.45718

>  <SCORE.INTER.CONST>
1

>  <SCORE.INTER.POLAR>
0

>  <SCORE.INTER.ROT>
6

>  <SCORE.INTER.SOLV>
19.0233

>  <SCORE.INTER.VDW>
-16.9125

>  <SCORE.INTER.norm>
-0.131093

>  <SCORE.INTRA>
-4.15695

>  <SCORE.INTRA.DIHEDRAL>
-8.83993

>  <SCORE.INTRA.DIHEDRAL.0>
15.8194

>  <SCORE.INTRA.POLAR>
0

>  <SCORE.INTRA.POLAR.0>
0

>  <SCORE.INTRA.REPUL>
0

>  <SCORE.INTRA.REPUL.0>
0

>  <SCORE.INTRA.SOLV>
0.788758

>  <SCORE.INTRA.SOLV.lig_0>
-71.9159

>  <SCORE.INTRA.VDW>
-0.131366

>  <SCORE.INTRA.VDW.0>
-3.53918

>  <SCORE.INTRA.norm>
-0.122263

>  <SCORE.RESTR>
0

>  <SCORE.RESTR.CAVITY>
0

>  <SCORE.RESTR.norm>
0

>  <SCORE.SYSTEM>
0

>  <SCORE.SYSTEM.CONST>
0

>  <SCORE.SYSTEM.DIHEDRAL>
0

>  <SCORE.SYSTEM.SOLV>
0

>  <SCORE.SYSTEM.norm>
0

>  <SCORE.heavy>
34

>  <SCORE.norm>
-0.253357

>  <RMSD>
3.391

$$$$
ligand
 OpenBabel01301917533D
libRbt.so/2013.1/901 2013/11/27
 34 36  0  0  0  0  0  0  0  0999 V2000
   18.1153   27.7151   34.3630 C   0  0  2  0  0  0  0  0  0  0  0  0
   18.6189   27.5460   35.6919 O   0  0  0  0  0  0  0  0  0  0  0  0
   21.9397   29.8272   37.1651 C   0  0  2  0  0  0  0  0  0  0  0  0
   23.2952   30.2173   37.5762 N   0  0  0  0  0  0  0  0  0  0  0  0
   21.2697   31.9163   35.0145 C   0  0  2  0  0  0  0  0  0  0  0  0
   16.5920   27.3150   34.3638 C   0  0  2  0  0  0  0  0  0  0  0  0
   15.8310   28.1479   35.3089 N   0  0  0  0  0  0  0  0  0  0  0  0
   21.5681   28.5073   37.9327 C   0  0  0  0  0  0  0  0  0  0  0  0
   20.8734   32.2671   33.5261 C   0  0  2  0  0  0  0  0  0  0  0  0
   20.2339   31.1608   32.9132 O   0  0  0  0  0  0  0  0  0  0  0  0
   16.4314   25.8083   34.7285 C   0  0  1  0  0  0  0  0  0  0  0  0
   15.0402   25.4383   34.7306 O   0  0  0  0  0  0  0  0  0  0  0  0
   20.1129   28.1022   37.5076 C   0  0  2  0  0  0  0  0  0  0  0  0
   19.6940   26.8482   38.1963 N   0  0  0  0  0  0  0  0  0  0  0  0
   22.1885   32.6404   32.7429 C   0  0  1  0  0  0  0  0  0  0  0  0
   21.8904   32.9451   31.3290 N   0  0  0  0  0  0  0  0  0  0  0  0
   17.2424   24.9712   33.7118 C   0  0  2  0  0  0  0  0  0  0  0  0
   17.0983   23.5816   34.0220 O   0  0  0  0  0  0  0  0  0  0  0  0
   20.0258   27.8824   35.9670 C   0  0  2  0  0  0  0  0  0  0  0  0
   22.8605   33.8689   33.4339 C   0  0  1  0  0  0  0  0  0  0  0  0
   21.9608   34.9704   33.3671 O   0  0  0  0  0  0  0  0  0  0  0  0
   18.7635   25.4282   33.7711 C   0  0  2  0  0  0  0  0  0  0  0  0
   18.8898   26.8691   33.4580 O   0  0  0  0  0  0  0  0  0  0  0  0
   20.4638   29.1835   35.2411 C   0  0  2  0  0  0  0  0  0  0  0  0
   20.4052   28.9459   33.8362 O   0  0  0  0  0  0  0  0  0  0  0  0
   23.1548   33.5105   34.9260 C   0  0  0  0  0  0  0  0  0  0  0  0
   21.9218   33.0875   35.6323 O   0  0  0  0  0  0  0  0  0  0  0  0
   19.6646   24.6428   32.7754 C   0  0  2  0  0  0  0  0  0  0  0  0
   19.0205   24.5893   31.4977 O   0  0  0  0  0  0  0  0  0  0  0  0
   21.9180   29.5800   35.5964 C   0  0  1  0  0  0  0  0  0  0  0  0
   22.2271   30.8158   34.8950 O   0  0  0  0  0  0  0  0  0  0  0  0
   19.9132   23.2212   33.2290 C   0  0  0  0  0  0  0  0  0  0  0  0
   24.1599   34.2822   32.7412 C   0  0  0  0  0  0  0  0  0  0  0  0
   22.1899   31.7257   30.5389 C   0  0  0  0  0  0  0  0  0  0  0  0
  1  2  1  1  0  0  0
  1  6  1  0  0  0  0
  1 23  1  0  0  0  0
  3  4  1  1  0  0  0
  3  8  1  0  0  0  0
  3 30  1  0  0  0  0
  5  9  1  0  0  0  0
  5 27  1  0  0  0  0
  5 31  1  6  0  0  0
  6  7  1  1  0  0  0
  6 11  1  0  0  0  0
  8 13  1  0  0  0  0
  9 10  1  6  0  0  0
  9 15  1  0  0  0  0
 11 12  1  6  0  0  0
 11 17  1  0  0  0  0
 13 14  1  1  0  0  0
 13 19  1  0  0  0  0
 15 16  1  6  0  0  0
 15 20  1  0  0  0  0
 16 34  1  0  0  0  0
 17 18  1  1  0  0  0
 17 22  1  0  0  0  0
 19  2  1  1  0  0  0
 19 24  1  0  0  0  0
 20 21  1  6  0  0  0
 20 26  1  0  0  0  0
 20 33  1  0  0  0  0
 22 23  1  6  0  0  0
 22 28  1  0  0  0  0
 24 25  1  6  0  0  0
 24 30  1  0  0  0  0
 26 27  1  0  0  0  0
 28 29  1  6  0  0  0
 28 32  1  0  0  0  0
 30 31  1  6  0  0  0
M  END
>  <CHROM.1>
-178.76341434,159.61374181,-98.49949443,46.34447947,-65.51213248,-123.41578329
20.15330381,29.03542561,34.42538046,2.87518568,0.99462688,1.82976041

>  <Name>
ligand

>  <RI>
0

>  <Rbt.Current_Directory>
/home/itssahil/PROJECTS/Mol_Feturizer/New_Systems/rnas/4p3s

>  <Rbt.Executable>
rbdock ($Id: //depot/dev/client3/rdock/2013.1/src/exe/rbdock.cxx#4 $)

>  <Rbt.Library>
libRbt.so (2013.1, Build901 2013/11/27)

>  <Rbt.Parameter_File>
/export/apps/rDock/src/rDock_2013.1_src/data/scripts/dock_solv.prm

>  <Rbt.Receptor>
prm/blind_docking_80.prm

>  <SCORE>
-3.96314

>  <SCORE.INTER>
-6.77579

>  <SCORE.INTER.CONST>
1

>  <SCORE.INTER.POLAR>
0

>  <SCORE.INTER.ROT>
6

>  <SCORE.INTER.SOLV>
17.7655

>  <SCORE.INTER.VDW>
-18.039

>  <SCORE.INTER.norm>
-0.199288

>  <SCORE.INTRA>
0.789527

>  <SCORE.INTRA.DIHEDRAL>
-5.09965

>  <SCORE.INTRA.DIHEDRAL.0>
15.8194

>  <SCORE.INTRA.POLAR>
0

>  <SCORE.INTRA.POLAR.0>
0

>  <SCORE.INTRA.REPUL>
0

>  <SCORE.INTRA.REPUL.0>
0

>  <SCORE.INTRA.SOLV>
-0.488409

>  <SCORE.INTRA.SOLV.lig_0>
-71.9159

>  <SCORE.INTRA.VDW>
3.58356

>  <SCORE.INTRA.VDW.0>
-3.53918

>  <SCORE.INTRA.norm>
0.0232214

>  <SCORE.RESTR>
2.02313

>  <SCORE.RESTR.CAVITY>
2.02313

>  <SCORE.RESTR.norm>
0.0595038

>  <SCORE.SYSTEM>
0

>  <SCORE.SYSTEM.CONST>
0

>  <SCORE.SYSTEM.DIHEDRAL>
0

>  <SCORE.SYSTEM.SOLV>
0

>  <SCORE.SYSTEM.norm>
0

>  <SCORE.heavy>
34

>  <SCORE.norm>
-0.116563

>  <RMSD>
3.416

$$$$
ligand
 OpenBabel01301917533D
libRbt.so/2013.1/901 2013/11/27
 34 36  0  0  0  0  0  0  0  0999 V2000
   20.1767   27.3738   37.0455 C   0  0  2  0  0  0  0  0  0  0  0  0
   21.5488   27.3029   36.6449 O   0  0  0  0  0  0  0  0  0  0  0  0
   23.2038   29.2058   40.1151 C   0  0  2  0  0  0  0  0  0  0  0  0
   24.1593   29.7664   41.0802 N   0  0  0  0  0  0  0  0  0  0  0  0
   23.8630   32.4271   39.2601 C   0  0  2  0  0  0  0  0  0  0  0  0
   19.3872   26.2432   36.2845 C   0  0  2  0  0  0  0  0  0  0  0  0
   19.9425   24.9158   36.5942 N   0  0  0  0  0  0  0  0  0  0  0  0
   23.6268   27.7194   39.8310 C   0  0  0  0  0  0  0  0  0  0  0  0
   23.1056   33.8121   39.2020 C   0  0  2  0  0  0  0  0  0  0  0  0
   22.1550   33.8976   40.2496 O   0  0  0  0  0  0  0  0  0  0  0  0
   19.4315   26.4969   34.7474 C   0  0  1  0  0  0  0  0  0  0  0  0
   18.7111   25.4654   34.0478 O   0  0  0  0  0  0  0  0  0  0  0  0
   22.5945   27.1156   38.8151 C   0  0  2  0  0  0  0  0  0  0  0  0
   22.9391   25.7013   38.4935 N   0  0  0  0  0  0  0  0  0  0  0  0
   22.3884   33.9211   37.8035 C   0  0  1  0  0  0  0  0  0  0  0  0
   21.6287   35.1832   37.6986 N   0  0  0  0  0  0  0  0  0  0  0  0
   18.8381   27.8973   34.4669 C   0  0  2  0  0  0  0  0  0  0  0  0
   18.8583   28.1456   33.0577 O   0  0  0  0  0  0  0  0  0  0  0  0
   22.5704   27.9401   37.4926 C   0  0  2  0  0  0  0  0  0  0  0  0
   23.4624   33.8373   36.6731 C   0  0  1  0  0  0  0  0  0  0  0  0
   24.3533   34.9388   36.8167 O   0  0  0  0  0  0  0  0  0  0  0  0
   19.6858   28.9807   35.2630 C   0  0  2  0  0  0  0  0  0  0  0  0
   19.6610   28.7005   36.7159 O   0  0  0  0  0  0  0  0  0  0  0  0
   22.2153   29.4162   37.8188 C   0  0  2  0  0  0  0  0  0  0  0  0
   22.2308   30.1537   36.5983 O   0  0  0  0  0  0  0  0  0  0  0  0
   24.2470   32.4942   36.8206 C   0  0  0  0  0  0  0  0  0  0  0  0
   24.8539   32.3691   38.1676 O   0  0  0  0  0  0  0  0  0  0  0  0
   19.1608   30.4292   35.0475 C   0  0  2  0  0  0  0  0  0  0  0  0
   19.9955   31.3452   35.7647 O   0  0  0  0  0  0  0  0  0  0  0  0
   23.2484   30.0594   38.7766 C   0  0  1  0  0  0  0  0  0  0  0  0
   22.8202   31.4233   39.0433 O   0  0  0  0  0  0  0  0  0  0  0  0
   17.7439   30.6038   35.5481 C   0  0  0  0  0  0  0  0  0  0  0  0
   22.8406   33.9160   35.2781 C   0  0  0  0  0  0  0  0  0  0  0  0
   20.1894   34.8475   37.8267 C   0  0  0  0  0  0  0  0  0  0  0  0
  1  2  1  6  0  0  0
  1  6  1  0  0  0  0
  1 23  1  0  0  0  0
  3  4  1  1  0  0  0
  3  8  1  0  0  0  0
  3 30  1  0  0  0  0
  5  9  1  0  0  0  0
  5 27  1  0  0  0  0
  5 31  1  6  0  0  0
  6  7  1  6  0  0  0
  6 11  1  0  0  0  0
  8 13  1  0  0  0  0
  9 10  1  1  0  0  0
  9 15  1  0  0  0  0
 11 12  1  6  0  0  0
 11 17  1  0  0  0  0
 13 14  1  6  0  0  0
 13 19  1  0  0  0  0
 15 16  1  1  0  0  0
 15 20  1  0  0  0  0
 16 34  1  0  0  0  0
 17 18  1  6  0  0  0
 17 22  1  0  0  0  0
 19  2  1  6  0  0  0
 19 24  1  0  0  0  0
 20 21  1  1  0  0  0
 20 26  1  0  0  0  0
 20 33  1  0  0  0  0
 22 23  1  1  0  0  0
 22 28  1  0  0  0  0
 24 25  1  6  0  0  0
 24 30  1  0  0  0  0
 26 27  1  0  0  0  0
 28 29  1  1  0  0  0
 28 32  1  0  0  0  0
 30 31  1  1  0  0  0
M  END
>  <CHROM.1>
-160.92537259,67.19273112,-105.79689657,-178.43144277,97.33843611,167.99665050
21.62740008,30.15445173,37.18147863,-2.23837840,-0.80498264,-0.14568010

>  <Name>
ligand

>  <RI>
0

>  <Rbt.Current_Directory>
/home/itssahil/PROJECTS/Mol_Feturizer/New_Systems/rnas/4p3s

>  <Rbt.Executable>
rbdock ($Id: //depot/dev/client3/rdock/2013.1/src/exe/rbdock.cxx#4 $)

>  <Rbt.Library>
libRbt.so (2013.1, Build901 2013/11/27)

>  <Rbt.Parameter_File>
/export/apps/rDock/src/rDock_2013.1_src/data/scripts/dock_solv.prm

>  <Rbt.Receptor>
prm/pocket_docking_4.prm

>  <SCORE>
-8.22424

>  <SCORE.INTER>
-5.25874

>  <SCORE.INTER.CONST>
1

>  <SCORE.INTER.POLAR>
0

>  <SCORE.INTER.ROT>
6

>  <SCORE.INTER.SOLV>
18.553

>  <SCORE.INTER.VDW>
-17.2901

>  <SCORE.INTER.norm>
-0.154669

>  <SCORE.INTRA>
-2.9655

>  <SCORE.INTRA.DIHEDRAL>
-7.20861

>  <SCORE.INTRA.DIHEDRAL.0>
15.8194

>  <SCORE.INTRA.POLAR>
0

>  <SCORE.INTRA.POLAR.0>
0

>  <SCORE.INTRA.REPUL>
0.0137822

>  <SCORE.INTRA.REPUL.0>
0

>  <SCORE.INTRA.SOLV>
1.34762

>  <SCORE.INTRA.SOLV.lig_0>
-71.9159

>  <SCORE.INTRA.VDW>
-0.103909

>  <SCORE.INTRA.VDW.0>
-3.53918

>  <SCORE.INTRA.norm>
-0.0872205

>  <SCORE.RESTR>
0

>  <SCORE.RESTR.CAVITY>
0

>  <SCORE.RESTR.norm>
0

>  <SCORE.SYSTEM>
0

>  <SCORE.SYSTEM.CONST>
0

>  <SCORE.SYSTEM.DIHEDRAL>
0

>  <SCORE.SYSTEM.SOLV>
0

>  <SCORE.SYSTEM.norm>
0

>  <SCORE.heavy>
34

>  <SCORE.norm>
-0.241889

>  <RMSD>
3.477

$$$$
ligand
 OpenBabel01301917533D
libRbt.so/2013.1/901 2013/11/27
 34 36  0  0  0  0  0  0  0  0999 V2000
   17.0424   29.6586   34.5663 C   0  0  2  0  0  0  0  0  0  0  0  0
   18.3328   29.7043   35.1834 O   0  0  0  0  0  0  0  0  0  0  0  0
   21.5696   32.4552   34.5850 C   0  0  2  0  0  0  0  0  0  0  0  0
   22.3488   33.6968   34.4855 N   0  0  0  0  0  0  0  0  0  0  0  0
   23.1269   33.2377   37.1930 C   0  0  2  0  0  0  0  0  0  0  0  0
   15.9550   29.7143   35.7044 C   0  0  2  0  0  0  0  0  0  0  0  0
   16.0958   30.9410   36.5052 N   0  0  0  0  0  0  0  0  0  0  0  0
   20.3080   32.6065   33.6606 C   0  0  0  0  0  0  0  0  0  0  0  0
   24.3878   32.6831   37.9663 C   0  0  2  0  0  0  0  0  0  0  0  0
   25.1105   31.7809   37.1464 O   0  0  0  0  0  0  0  0  0  0  0  0
   16.0711   28.4597   36.6217 C   0  0  1  0  0  0  0  0  0  0  0  0
   15.0790   28.5066   37.6636 O   0  0  0  0  0  0  0  0  0  0  0  0
   19.4867   31.2726   33.7525 C   0  0  2  0  0  0  0  0  0  0  0  0
   18.2657   31.3472   32.9006 N   0  0  0  0  0  0  0  0  0  0  0  0
   23.8833   31.9534   39.2684 C   0  0  1  0  0  0  0  0  0  0  0  0
   25.0158   31.3779   40.0215 N   0  0  0  0  0  0  0  0  0  0  0  0
   15.9155   27.1967   35.7426 C   0  0  2  0  0  0  0  0  0  0  0  0
   16.0070   26.0317   36.5687 O   0  0  0  0  0  0  0  0  0  0  0  0
   19.0566   30.9861   35.2230 C   0  0  2  0  0  0  0  0  0  0  0  0
   23.1042   32.9759   40.1549 C   0  0  1  0  0  0  0  0  0  0  0  0
   23.9989   34.0172   40.5324 O   0  0  0  0  0  0  0  0  0  0  0  0
   17.0446   27.2097   34.6242 C   0  0  2  0  0  0  0  0  0  0  0  0
   16.9393   28.4263   33.7882 O   0  0  0  0  0  0  0  0  0  0  0  0
   20.3229   30.9099   36.1187 C   0  0  2  0  0  0  0  0  0  0  0  0
   19.9005   30.6788   37.4610 O   0  0  0  0  0  0  0  0  0  0  0  0
   21.9200   33.5656   39.3234 C   0  0  0  0  0  0  0  0  0  0  0  0
   22.4000   34.1824   38.0636 O   0  0  0  0  0  0  0  0  0  0  0  0
   16.9684   25.9747   33.6811 C   0  0  2  0  0  0  0  0  0  0  0  0
   17.0355   24.7781   34.4645 O   0  0  0  0  0  0  0  0  0  0  0  0
   21.1268   32.2333   36.0940 C   0  0  1  0  0  0  0  0  0  0  0  0
   22.3001   32.0579   36.9349 O   0  0  0  0  0  0  0  0  0  0  0  0
   18.1091   25.9431   32.6879 C   0  0  0  0  0  0  0  0  0  0  0  0
   22.5625   32.3364   41.4342 C   0  0  0  0  0  0  0  0  0  0  0  0
   25.0334   29.9192   39.7518 C   0  0  0  0  0  0  0  0  0  0  0  0
  1  2  1  1  0  0  0
  1  6  1  0  0  0  0
  1 23  1  0  0  0  0
  3  4  1  1  0  0  0
  3  8  1  0  0  0  0
  3 30  1  0  0  0  0
  5  9  1  0  0  0  0
  5 27  1  0  0  0  0
  5 31  1  1  0  0  0
  6  7  1  1  0  0  0
  6 11  1  0  0  0  0
  8 13  1  0  0  0  0
  9 10  1  6  0  0  0
  9 15  1  0  0  0  0
 11 12  1  1  0  0  0
 11 17  1  0  0  0  0
 13 14  1  6  0  0  0
 13 19  1  0  0  0  0
 15 16  1  1  0  0  0
 15 20  1  0  0  0  0
 16 34  1  0  0  0  0
 17 18  1  1  0  0  0
 17 22  1  0  0  0  0
 19  2  1  6  0  0  0
 19 24  1  0  0  0  0
 20 21  1  1  0  0  0
 20 26  1  0  0  0  0
 20 33  1  0  0  0  0
 22 23  1  6  0  0  0
 22 28  1  0  0  0  0
 24 25  1  1  0  0  0
 24 30  1  0  0  0  0
 26 27  1  0  0  0  0
 28 29  1  1  0  0  0
 28 32  1  0  0  0  0
 30 31  1  1  0  0  0
M  END
>  <CHROM.1>
-99.65100131,-70.42128322,-102.61222398,-56.13073979,71.86169910,-173.17674901
20.05675019,30.52197885,36.49328558,-3.00120233,0.73570033,2.02341694

>  <Name>
ligand

>  <RI>
0

>  <Rbt.Current_Directory>
/home/itssahil/PROJECTS/Mol_Feturizer/New_Systems/rnas/4p3s

>  <Rbt.Executable>
rbdock ($Id: //depot/dev/client3/rdock/2013.1/src/exe/rbdock.cxx#4 $)

>  <Rbt.Library>
libRbt.so (2013.1, Build901 2013/11/27)

>  <Rbt.Parameter_File>
/export/apps/rDock/src/rDock_2013.1_src/data/scripts/dock_solv.prm

>  <Rbt.Receptor>
prm/pocket_docking_5.prm

>  <SCORE>
-11.8035

>  <SCORE.INTER>
-10.1226

>  <SCORE.INTER.CONST>
1

>  <SCORE.INTER.POLAR>
0

>  <SCORE.INTER.ROT>
6

>  <SCORE.INTER.SOLV>
12.704

>  <SCORE.INTER.VDW>
-18.5831

>  <SCORE.INTER.norm>
-0.297725

>  <SCORE.INTRA>
-1.68089

>  <SCORE.INTRA.DIHEDRAL>
-7.9273

>  <SCORE.INTRA.DIHEDRAL.0>
15.8194

>  <SCORE.INTRA.POLAR>
0

>  <SCORE.INTRA.POLAR.0>
0

>  <SCORE.INTRA.REPUL>
0

>  <SCORE.INTRA.REPUL.0>
0

>  <SCORE.INTRA.SOLV>
1.90848

>  <SCORE.INTRA.SOLV.lig_0>
-71.9159

>  <SCORE.INTRA.VDW>
1.32852

>  <SCORE.INTRA.VDW.0>
-3.53918

>  <SCORE.INTRA.norm>
-0.0494381

>  <SCORE.RESTR>
0

>  <SCORE.RESTR.CAVITY>
0

>  <SCORE.RESTR.norm>
0

>  <SCORE.SYSTEM>
0

>  <SCORE.SYSTEM.CONST>
0

>  <SCORE.SYSTEM.DIHEDRAL>
0

>  <SCORE.SYSTEM.SOLV>
0

>  <SCORE.SYSTEM.norm>
0

>  <SCORE.heavy>
34

>  <SCORE.norm>
-0.347163

>  <RMSD>
3.672

$$$$
ligand
 OpenBabel01301917533D
libRbt.so/2013.1/901 2013/11/27
 34 36  0  0  0  0  0  0  0  0999 V2000
   17.2802   28.7000   35.0495 C   0  0  2  0  0  0  0  0  0  0  0  0
   18.0477   28.5229   36.2443 O   0  0  0  0  0  0  0  0  0  0  0  0
   20.7903   31.5641   37.5215 C   0  0  2  0  0  0  0  0  0  0  0  0
   22.0309   32.3007   37.7991 N   0  0  0  0  0  0  0  0  0  0  0  0
   21.5748   33.6688   35.4723 C   0  0  2  0  0  0  0  0  0  0  0  0
   15.8662   28.0443   35.2762 C   0  0  2  0  0  0  0  0  0  0  0  0
   15.1789   28.6616   36.4219 N   0  0  0  0  0  0  0  0  0  0  0  0
   20.9157   30.1469   38.1886 C   0  0  0  0  0  0  0  0  0  0  0  0
   21.1677   34.9080   34.5812 C   0  0  2  0  0  0  0  0  0  0  0  0
   19.9970   35.5200   35.0945 O   0  0  0  0  0  0  0  0  0  0  0  0
   16.0148   26.5097   35.5043 C   0  0  1  0  0  0  0  0  0  0  0  0
   14.7245   25.9063   35.7122 O   0  0  0  0  0  0  0  0  0  0  0  0
   19.5826   29.3682   37.9080 C   0  0  2  0  0  0  0  0  0  0  0  0
   19.6332   28.0053   38.5100 N   0  0  0  0  0  0  0  0  0  0  0  0
   20.9169   34.3954   33.1126 C   0  0  1  0  0  0  0  0  0  0  0  0
   20.4958   35.5043   32.2330 N   0  0  0  0  0  0  0  0  0  0  0  0
   16.7376   25.9023   34.2794 C   0  0  2  0  0  0  0  0  0  0  0  0
   16.8736   24.4896   34.4634 O   0  0  0  0  0  0  0  0  0  0  0  0
   19.3317   29.2316   36.3758 C   0  0  2  0  0  0  0  0  0  0  0  0
   22.2271   33.7400   32.5720 C   0  0  1  0  0  0  0  0  0  0  0  0
   23.2472   34.7328   32.5414 O   0  0  0  0  0  0  0  0  0  0  0  0
   18.1520   26.6090   34.1178 C   0  0  2  0  0  0  0  0  0  0  0  0
   17.9902   28.0692   33.9393 O   0  0  0  0  0  0  0  0  0  0  0  0
   19.2807   30.6473   35.7396 C   0  0  2  0  0  0  0  0  0  0  0  0
   19.0821   30.4932   34.3358 O   0  0  0  0  0  0  0  0  0  0  0  0
   22.6427   32.5777   33.5301 C   0  0  0  0  0  0  0  0  0  0  0  0
   22.8015   33.0581   34.9237 O   0  0  0  0  0  0  0  0  0  0  0  0
   18.9581   26.0662   32.9029 C   0  0  2  0  0  0  0  0  0  0  0  0
   18.1016   26.0072   31.7570 O   0  0  0  0  0  0  0  0  0  0  0  0
   20.6050   31.4220   35.9506 C   0  0  1  0  0  0  0  0  0  0  0  0
   20.4533   32.7366   35.3478 O   0  0  0  0  0  0  0  0  0  0  0  0
   19.4974   24.6747   33.1508 C   0  0  0  0  0  0  0  0  0  0  0  0
   22.0584   33.1971   31.1523 C   0  0  0  0  0  0  0  0  0  0  0  0
   19.0145   35.4737   32.1575 C   0  0  0  0  0  0  0  0  0  0  0  0
  1  2  1  1  0  0  0
  1  6  1  0  0  0  0
  1 23  1  0  0  0  0
  3  4  1  6  0  0  0
  3  8  1  0  0  0  0
  3 30  1  0  0  0  0
  5  9  1  0  0  0  0
  5 27  1  0  0  0  0
  5 31  1  6  0  0  0
  6  7  1  1  0  0  0
  6 11  1  0  0  0  0
  8 13  1  0  0  0  0
  9 10  1  1  0  0  0
  9 15  1  0  0  0  0
 11 12  1  6  0  0  0
 11 17  1  0  0  0  0
 13 14  1  6  0  0  0
 13 19  1  0  0  0  0
 15 16  1  6  0  0  0
 15 20  1  0  0  0  0
 16 34  1  0  0  0  0
 17 18  1  1  0  0  0
 17 22  1  0  0  0  0
 19  2  1  1  0  0  0
 19 24  1  0  0  0  0
 20 21  1  6  0  0  0
 20 26  1  0  0  0  0
 20 33  1  0  0  0  0
 22 23  1  6  0  0  0
 22 28  1  0  0  0  0
 24 25  1  6  0  0  0
 24 30  1  0  0  0  0
 26 27  1  0  0  0  0
 28 29  1  6  0  0  0
 28 32  1  0  0  0  0
 30 31  1  6  0  0  0
M  END
>  <CHROM.1>
-170.30566062,155.25064873,-96.85095535,46.81763869,62.30898834,173.43147618
19.44186701,30.31041421,34.78322337,-3.03730998,-1.06066813,-1.57607811

>  <Name>
ligand

>  <RI>
0

>  <Rbt.Current_Directory>
/home/itssahil/PROJECTS/Mol_Feturizer/New_Systems/rnas/4p3s

>  <Rbt.Executable>
rbdock ($Id: //depot/dev/client3/rdock/2013.1/src/exe/rbdock.cxx#4 $)

>  <Rbt.Library>
libRbt.so (2013.1, Build901 2013/11/27)

>  <Rbt.Parameter_File>
/export/apps/rDock/src/rDock_2013.1_src/data/scripts/dock_solv.prm

>  <Rbt.Receptor>
prm/pocket_docking_8.prm

>  <SCORE>
-9.77775

>  <SCORE.INTER>
-7.01822

>  <SCORE.INTER.CONST>
1

>  <SCORE.INTER.POLAR>
0

>  <SCORE.INTER.ROT>
6

>  <SCORE.INTER.SOLV>
11.5078

>  <SCORE.INTER.VDW>
-16.1148

>  <SCORE.INTER.norm>
-0.206418

>  <SCORE.INTRA>
-2.75954

>  <SCORE.INTRA.DIHEDRAL>
-10.9892

>  <SCORE.INTRA.DIHEDRAL.0>
15.8194

>  <SCORE.INTRA.POLAR>
0

>  <SCORE.INTRA.POLAR.0>
0

>  <SCORE.INTRA.REPUL>
0

>  <SCORE.INTRA.REPUL.0>
0

>  <SCORE.INTRA.SOLV>
-0.223002

>  <SCORE.INTRA.SOLV.lig_0>
-71.9159

>  <SCORE.INTRA.VDW>
2.84656

>  <SCORE.INTRA.VDW.0>
-3.53918

>  <SCORE.INTRA.norm>
-0.0811628

>  <SCORE.RESTR>
0

>  <SCORE.RESTR.CAVITY>
0

>  <SCORE.RESTR.norm>
0

>  <SCORE.SYSTEM>
0

>  <SCORE.SYSTEM.CONST>
0

>  <SCORE.SYSTEM.DIHEDRAL>
0

>  <SCORE.SYSTEM.SOLV>
0

>  <SCORE.SYSTEM.norm>
0

>  <SCORE.heavy>
34

>  <SCORE.norm>
-0.287581

>  <RMSD>
3.688

$$$$
ligand
 OpenBabel01301917533D
libRbt.so/2013.1/901 2013/11/27
 34 36  0  0  0  0  0  0  0  0999 V2000
   18.0755   29.0242   39.2352 C   0  0  2  0  0  0  0  0  0  0  0  0
   18.6151   28.1619   38.2284 O   0  0  0  0  0  0  0  0  0  0  0  0
   22.7447   29.1907   38.7668 C   0  0  2  0  0  0  0  0  0  0  0  0
   24.2026   29.2568   38.5969 N   0  0  0  0  0  0  0  0  0  0  0  0
   23.7514   31.5660   36.9875 C   0  0  2  0  0  0  0  0  0  0  0  0
   16.9546   28.2315   40.0071 C   0  0  2  0  0  0  0  0  0  0  0  0
   17.5024   27.0104   40.6194 N   0  0  0  0  0  0  0  0  0  0  0  0
   22.3483   27.6774   38.9149 C   0  0  0  0  0  0  0  0  0  0  0  0
   24.2937   32.4942   38.1449 C   0  0  2  0  0  0  0  0  0  0  0  0
   24.3275   31.7838   39.3707 O   0  0  0  0  0  0  0  0  0  0  0  0
   15.7884   27.8684   39.0391 C   0  0  1  0  0  0  0  0  0  0  0  0
   14.7615   27.1434   39.7406 O   0  0  0  0  0  0  0  0  0  0  0  0
   20.7935   27.6092   39.1156 C   0  0  2  0  0  0  0  0  0  0  0  0
   20.3433   26.1952   39.2579 N   0  0  0  0  0  0  0  0  0  0  0  0
   23.3379   33.7412   38.2626 C   0  0  1  0  0  0  0  0  0  0  0  0
   23.7707   34.6346   39.3560 N   0  0  0  0  0  0  0  0  0  0  0  0
   15.2420   29.1768   38.4214 C   0  0  2  0  0  0  0  0  0  0  0  0
   14.1605   28.8663   37.5371 O   0  0  0  0  0  0  0  0  0  0  0  0
   20.0492   28.2543   37.9076 C   0  0  2  0  0  0  0  0  0  0  0  0
   23.3335   34.5088   36.9028 C   0  0  1  0  0  0  0  0  0  0  0  0
   24.6553   34.9693   36.6419 O   0  0  0  0  0  0  0  0  0  0  0  0
   16.4252   29.9160   37.6600 C   0  0  2  0  0  0  0  0  0  0  0  0
   17.5369   30.2186   38.5887 O   0  0  0  0  0  0  0  0  0  0  0  0
   20.5148   29.7273   37.7499 C   0  0  2  0  0  0  0  0  0  0  0  0
   19.8438   30.2836   36.6211 O   0  0  0  0  0  0  0  0  0  0  0  0
   22.8767   33.5312   35.7727 C   0  0  0  0  0  0  0  0  0  0  0  0
   23.7379   32.3254   35.7219 O   0  0  0  0  0  0  0  0  0  0  0  0
   15.9735   31.2529   37.0048 C   0  0  2  0  0  0  0  0  0  0  0  0
   15.1862   31.9954   37.9424 O   0  0  0  0  0  0  0  0  0  0  0  0
   22.0389   29.8258   37.4937 C   0  0  1  0  0  0  0  0  0  0  0  0
   22.3829   31.2346   37.3867 O   0  0  0  0  0  0  0  0  0  0  0  0
   15.1315   31.0273   35.7684 C   0  0  0  0  0  0  0  0  0  0  0  0
   22.4093   35.7270   36.9298 C   0  0  0  0  0  0  0  0  0  0  0  0
   23.1618   34.1287   40.6106 C   0  0  0  0  0  0  0  0  0  0  0  0
  1  2  1  6  0  0  0
  1  6  1  0  0  0  0
  1 23  1  0  0  0  0
  3  4  1  6  0  0  0
  3  8  1  0  0  0  0
  3 30  1  0  0  0  0
  5  9  1  0  0  0  0
  5 27  1  0  0  0  0
  5 31  1  1  0  0  0
  6  7  1  6  0  0  0
  6 11  1  0  0  0  0
  8 13  1  0  0  0  0
  9 10  1  1  0  0  0
  9 15  1  0  0  0  0
 11 12  1  1  0  0  0
 11 17  1  0  0  0  0
 13 14  1  6  0  0  0
 13 19  1  0  0  0  0
 15 16  1  1  0  0  0
 15 20  1  0  0  0  0
 16 34  1  0  0  0  0
 17 18  1  6  0  0  0
 17 22  1  0  0  0  0
 19  2  1  1  0  0  0
 19 24  1  0  0  0  0
 20 21  1  6  0  0  0
 20 26  1  0  0  0  0
 20 33  1  0  0  0  0
 22 23  1  1  0  0  0
 22 28  1  0  0  0  0
 24 25  1  6  0  0  0
 24 30  1  0  0  0  0
 26 27  1  0  0  0  0
 28 29  1  1  0  0  0
 28 32  1  0  0  0  0
 30 31  1  1  0  0  0
M  END
>  <CHROM.1>
-144.97782033,73.01792257,-85.85279995,45.67924065,71.58280376,-123.95776780
20.15808235,30.57536568,38.11082157,-2.61008138,-0.10403480,-0.35554006

>  <Name>
ligand

>  <RI>
0

>  <Rbt.Current_Directory>
/home/itssahil/PROJECTS/Mol_Feturizer/New_Systems/rnas/4p3s

>  <Rbt.Executable>
rbdock ($Id: //depot/dev/client3/rdock/2013.1/src/exe/rbdock.cxx#4 $)

>  <Rbt.Library>
libRbt.so (2013.1, Build901 2013/11/27)

>  <Rbt.Parameter_File>
/export/apps/rDock/src/rDock_2013.1_src/data/scripts/dock_solv.prm

>  <Rbt.Receptor>
prm/pocket_docking_5.prm

>  <SCORE>
-4.29025

>  <SCORE.INTER>
-6.72795

>  <SCORE.INTER.CONST>
1

>  <SCORE.INTER.POLAR>
0

>  <SCORE.INTER.ROT>
6

>  <SCORE.INTER.SOLV>
15.5126

>  <SCORE.INTER.VDW>
-17.2562

>  <SCORE.INTER.norm>
-0.197881

>  <SCORE.INTRA>
2.41835

>  <SCORE.INTRA.DIHEDRAL>
-1.49517

>  <SCORE.INTRA.DIHEDRAL.0>
15.8194

>  <SCORE.INTRA.POLAR>
0

>  <SCORE.INTRA.POLAR.0>
0

>  <SCORE.INTRA.REPUL>
0

>  <SCORE.INTRA.REPUL.0>
0

>  <SCORE.INTRA.SOLV>
3.46519

>  <SCORE.INTRA.SOLV.lig_0>
-71.9159

>  <SCORE.INTRA.VDW>
1.43334

>  <SCORE.INTRA.VDW.0>
-3.53918

>  <SCORE.INTRA.norm>
0.0711279

>  <SCORE.RESTR>
0.0193517

>  <SCORE.RESTR.CAVITY>
0.0193517

>  <SCORE.RESTR.norm>
0.000569168

>  <SCORE.SYSTEM>
0

>  <SCORE.SYSTEM.CONST>
0

>  <SCORE.SYSTEM.DIHEDRAL>
0

>  <SCORE.SYSTEM.SOLV>
0

>  <SCORE.SYSTEM.norm>
0

>  <SCORE.heavy>
34

>  <SCORE.norm>
-0.126184

>  <RMSD>
3.754

$$$$
ligand
 OpenBabel01301917533D
libRbt.so/2013.1/901 2013/11/27
 34 36  0  0  0  0  0  0  0  0999 V2000
   17.8230   29.3173   34.0737 C   0  0  2  0  0  0  0  0  0  0  0  0
   18.8939   29.5363   34.9976 O   0  0  0  0  0  0  0  0  0  0  0  0
   22.1998   32.2700   35.0147 C   0  0  2  0  0  0  0  0  0  0  0  0
   22.9980   33.4991   34.9112 N   0  0  0  0  0  0  0  0  0  0  0  0
   22.3392   33.8607   37.9038 C   0  0  2  0  0  0  0  0  0  0  0  0
   16.6555   30.3105   34.4358 C   0  0  2  0  0  0  0  0  0  0  0  0
   17.1139   31.7073   34.3658 N   0  0  0  0  0  0  0  0  0  0  0  0
   21.4044   32.1012   33.6701 C   0  0  0  0  0  0  0  0  0  0  0  0
   23.0822   33.6461   39.2812 C   0  0  2  0  0  0  0  0  0  0  0  0
   24.2443   32.8562   39.0958 O   0  0  0  0  0  0  0  0  0  0  0  0
   16.1055   29.9983   35.8603 C   0  0  1  0  0  0  0  0  0  0  0  0
   15.0380   30.9041   36.1954 O   0  0  0  0  0  0  0  0  0  0  0  0
   20.5672   30.7781   33.7743 C   0  0  2  0  0  0  0  0  0  0  0  0
   19.7782   30.5558   32.5290 N   0  0  0  0  0  0  0  0  0  0  0  0
   22.0865   32.9290   40.2695 C   0  0  1  0  0  0  0  0  0  0  0  0
   22.7346   32.6654   41.5701 N   0  0  0  0  0  0  0  0  0  0  0  0
   15.6337   28.5256   35.8889 C   0  0  2  0  0  0  0  0  0  0  0  0
   15.1129   28.2213   37.1867 O   0  0  0  0  0  0  0  0  0  0  0  0
   19.5883   30.8347   34.9858 C   0  0  2  0  0  0  0  0  0  0  0  0
   20.8254   33.8293   40.4629 C   0  0  1  0  0  0  0  0  0  0  0  0
   21.2376   35.0620   41.0442 O   0  0  0  0  0  0  0  0  0  0  0  0
   16.8621   27.5878   35.5179 C   0  0  2  0  0  0  0  0  0  0  0  0
   17.3923   27.9251   34.1781 O   0  0  0  0  0  0  0  0  0  0  0  0
   20.4017   31.0694   36.2876 C   0  0  2  0  0  0  0  0  0  0  0  0
   19.4818   31.1485   37.3744 O   0  0  0  0  0  0  0  0  0  0  0  0
   20.1722   34.0898   39.0676 C   0  0  0  0  0  0  0  0  0  0  0  0
   21.1414   34.6950   38.1229 O   0  0  0  0  0  0  0  0  0  0  0  0
   16.4847   26.0785   35.5156 C   0  0  2  0  0  0  0  0  0  0  0  0
   17.6227   25.3083   35.1129 O   0  0  0  0  0  0  0  0  0  0  0  0
   21.1964   32.3978   36.2391 C   0  0  1  0  0  0  0  0  0  0  0  0
   21.9423   32.5166   37.4818 O   0  0  0  0  0  0  0  0  0  0  0  0
   15.3555   25.7735   34.5563 C   0  0  0  0  0  0  0  0  0  0  0  0
   19.7973   33.1906   41.3978 C   0  0  0  0  0  0  0  0  0  0  0  0
   23.1807   31.2506   41.5656 C   0  0  0  0  0  0  0  0  0  0  0  0
  1  2  1  1  0  0  0
  1  6  1  0  0  0  0
  1 23  1  0  0  0  0
  3  4  1  6  0  0  0
  3  8  1  0  0  0  0
  3 30  1  0  0  0  0
  5  9  1  0  0  0  0
  5 27  1  0  0  0  0
  5 31  1  1  0  0  0
  6  7  1  1  0  0  0
  6 11  1  0  0  0  0
  8 13  1  0  0  0  0
  9 10  1  6  0  0  0
  9 15  1  0  0  0  0
 11 12  1  6  0  0  0
 11 17  1  0  0  0  0
 13 14  1  6  0  0  0
 13 19  1  0  0  0  0
 15 16  1  1  0  0  0
 15 20  1  0  0  0  0
 16 34  1  0  0  0  0
 17 18  1  1  0  0  0
 17 22  1  0  0  0  0
 19  2  1  1  0  0  0
 19 24  1  0  0  0  0
 20 21  1  1  0  0  0
 20 26  1  0  0  0  0
 20 33  1  0  0  0  0
 22 23  1  6  0  0  0
 22 28  1  0  0  0  0
 24 25  1  1  0  0  0
 24 30  1  0  0  0  0
 26 27  1  0  0  0  0
 28 29  1  6  0  0  0
 28 32  1  0  0  0  0
 30 31  1  1  0  0  0
M  END
>  <CHROM.1>
-64.82774876,-78.51888881,-98.73441356,177.31635348,87.77685987,178.52984292
19.58760158,31.05471871,36.79556172,-2.47397471,0.66908582,1.37125239

>  <Name>
ligand

>  <RI>
0

>  <Rbt.Current_Directory>
/home/itssahil/PROJECTS/Mol_Feturizer/New_Systems/rnas/4p3s

>  <Rbt.Executable>
rbdock ($Id: //depot/dev/client3/rdock/2013.1/src/exe/rbdock.cxx#4 $)

>  <Rbt.Library>
libRbt.so (2013.1, Build901 2013/11/27)

>  <Rbt.Parameter_File>
/export/apps/rDock/src/rDock_2013.1_src/data/scripts/dock_solv.prm

>  <Rbt.Receptor>
prm/pocket_docking_6.prm

>  <SCORE>
-10.676

>  <SCORE.INTER>
-8.83954

>  <SCORE.INTER.CONST>
1

>  <SCORE.INTER.POLAR>
0

>  <SCORE.INTER.ROT>
6

>  <SCORE.INTER.SOLV>
12.0477

>  <SCORE.INTER.VDW>
-17.5089

>  <SCORE.INTER.norm>
-0.259986

>  <SCORE.INTRA>
-1.83645

>  <SCORE.INTRA.DIHEDRAL>
-10.0067

>  <SCORE.INTRA.DIHEDRAL.0>
15.8194

>  <SCORE.INTRA.POLAR>
0

>  <SCORE.INTRA.POLAR.0>
0

>  <SCORE.INTRA.REPUL>
0

>  <SCORE.INTRA.REPUL.0>
0

>  <SCORE.INTRA.SOLV>
3.36953

>  <SCORE.INTRA.SOLV.lig_0>
-71.9159

>  <SCORE.INTRA.VDW>
1.48212

>  <SCORE.INTRA.VDW.0>
-3.53918

>  <SCORE.INTRA.norm>
-0.0540131

>  <SCORE.RESTR>
0

>  <SCORE.RESTR.CAVITY>
0

>  <SCORE.RESTR.norm>
0

>  <SCORE.SYSTEM>
0

>  <SCORE.SYSTEM.CONST>
0

>  <SCORE.SYSTEM.DIHEDRAL>
0

>  <SCORE.SYSTEM.SOLV>
0

>  <SCORE.SYSTEM.norm>
0

>  <SCORE.heavy>
34

>  <SCORE.norm>
-0.314

>  <RMSD>
3.821

$$$$
ligand
 OpenBabel01301917533D
libRbt.so/2013.1/901 2013/11/27
 34 36  0  0  0  0  0  0  0  0999 V2000
   19.4447   24.7187   35.0192 C   0  0  2  0  0  0  0  0  0  0  0  0
   19.8891   25.9109   34.3638 O   0  0  0  0  0  0  0  0  0  0  0  0
   20.5267   30.0191   35.4215 C   0  0  2  0  0  0  0  0  0  0  0  0
   20.3116   31.3830   35.9235 N   0  0  0  0  0  0  0  0  0  0  0  0
   22.9191   29.0486   37.1002 C   0  0  2  0  0  0  0  0  0  0  0  0
   19.4071   23.5606   33.9524 C   0  0  2  0  0  0  0  0  0  0  0  0
   20.7368   23.3518   33.3572 N   0  0  0  0  0  0  0  0  0  0  0  0
   19.3862   29.7042   34.3874 C   0  0  0  0  0  0  0  0  0  0  0  0
   23.8264   29.3208   38.3644 C   0  0  2  0  0  0  0  0  0  0  0  0
   23.5291   28.3920   39.3927 O   0  0  0  0  0  0  0  0  0  0  0  0
   18.3673   23.8883   32.8387 C   0  0  1  0  0  0  0  0  0  0  0  0
   18.3297   22.8321   31.8612 O   0  0  0  0  0  0  0  0  0  0  0  0
   19.6280   28.2546   33.8375 C   0  0  2  0  0  0  0  0  0  0  0  0
   18.5742   27.8844   32.8501 N   0  0  0  0  0  0  0  0  0  0  0  0
   23.5502   30.7907   38.8596 C   0  0  1  0  0  0  0  0  0  0  0  0
   24.3443   31.0973   40.0664 N   0  0  0  0  0  0  0  0  0  0  0  0
   16.9876   24.0972   33.5057 C   0  0  2  0  0  0  0  0  0  0  0  0
   16.0143   24.3876   32.4975 O   0  0  0  0  0  0  0  0  0  0  0  0
   19.6187   27.2127   34.9966 C   0  0  2  0  0  0  0  0  0  0  0  0
   23.8998   31.7886   37.7105 C   0  0  1  0  0  0  0  0  0  0  0  0
   25.2857   31.6607   37.4098 O   0  0  0  0  0  0  0  0  0  0  0  0
   17.1041   25.2784   34.5626 C   0  0  2  0  0  0  0  0  0  0  0  0
   18.1221   24.9635   35.5896 O   0  0  0  0  0  0  0  0  0  0  0  0
   20.7118   27.5926   36.0321 C   0  0  2  0  0  0  0  0  0  0  0  0
   20.6611   26.6437   37.0954 O   0  0  0  0  0  0  0  0  0  0  0  0
   23.0458   31.4292   36.4524 C   0  0  0  0  0  0  0  0  0  0  0  0
   23.2569   30.0204   36.0417 O   0  0  0  0  0  0  0  0  0  0  0  0
   15.7608   25.5631   35.2939 C   0  0  2  0  0  0  0  0  0  0  0  0
   14.7269   25.7574   34.3227 O   0  0  0  0  0  0  0  0  0  0  0  0
   20.4697   28.9978   36.6364 C   0  0  1  0  0  0  0  0  0  0  0  0
   21.5510   29.2746   37.5685 O   0  0  0  0  0  0  0  0  0  0  0  0
   15.8301   26.8069   36.1523 C   0  0  0  0  0  0  0  0  0  0  0  0
   23.6386   33.2421   38.1080 C   0  0  0  0  0  0  0  0  0  0  0  0
   23.4230   31.0505   41.2283 C   0  0  0  0  0  0  0  0  0  0  0  0
  1  2  1  6  0  0  0
  1  6  1  0  0  0  0
  1 23  1  0  0  0  0
  3  4  1  1  0  0  0
  3  8  1  0  0  0  0
  3 30  1  0  0  0  0
  5  9  1  0  0  0  0
  5 27  1  0  0  0  0
  5 31  1  1  0  0  0
  6  7  1  6  0  0  0
  6 11  1  0  0  0  0
  8 13  1  0  0  0  0
  9 10  1  1  0  0  0
  9 15  1  0  0  0  0
 11 12  1  6  0  0  0
 11 17  1  0  0  0  0
 13 14  1  6  0  0  0
 13 19  1  0  0  0  0
 15 16  1  1  0  0  0
 15 20  1  0  0  0  0
 16 34  1  0  0  0  0
 17 18  1  6  0  0  0
 17 22  1  0  0  0  0
 19  2  1  6  0  0  0
 19 24  1  0  0  0  0
 20 21  1  6  0  0  0
 20 26  1  0  0  0  0
 20 33  1  0  0  0  0
 22 23  1  1  0  0  0
 22 28  1  0  0  0  0
 24 25  1  1  0  0  0
 24 30  1  0  0  0  0
 26 27  1  0  0  0  0
 28 29  1  6  0  0  0
 28 32  1  0  0  0  0
 30 31  1  1  0  0  0
M  END
>  <CHROM.1>
160.97194479,-155.74820029,-104.20700545,-52.52191301,-66.22824270,-175.44634579
20.37232355,27.80967306,35.85773965,-2.29805369,-0.37918524,0.31446351

>  <Name>
ligand

>  <RI>
0

>  <Rbt.Current_Directory>
/home/itssahil/PROJECTS/Mol_Feturizer/New_Systems/rnas/4p3s

>  <Rbt.Executable>
rbdock ($Id: //depot/dev/client3/rdock/2013.1/src/exe/rbdock.cxx#4 $)

>  <Rbt.Library>
libRbt.so (2013.1, Build901 2013/11/27)

>  <Rbt.Parameter_File>
/export/apps/rDock/src/rDock_2013.1_src/data/scripts/dock_solv.prm

>  <Rbt.Receptor>
prm/blind_docking_80.prm

>  <SCORE>
-0.617603

>  <SCORE.INTER>
-2.51651

>  <SCORE.INTER.CONST>
1

>  <SCORE.INTER.POLAR>
0

>  <SCORE.INTER.ROT>
6

>  <SCORE.INTER.SOLV>
22.6532

>  <SCORE.INTER.VDW>
-16.8288

>  <SCORE.INTER.norm>
-0.0740149

>  <SCORE.INTRA>
-2.06766

>  <SCORE.INTRA.DIHEDRAL>
-10.0208

>  <SCORE.INTRA.DIHEDRAL.0>
15.8194

>  <SCORE.INTRA.POLAR>
0

>  <SCORE.INTRA.POLAR.0>
0

>  <SCORE.INTRA.REPUL>
0

>  <SCORE.INTRA.REPUL.0>
0

>  <SCORE.INTRA.SOLV>
2.5004

>  <SCORE.INTRA.SOLV.lig_0>
-71.9159

>  <SCORE.INTRA.VDW>
1.69253

>  <SCORE.INTRA.VDW.0>
-3.53918

>  <SCORE.INTRA.norm>
-0.0608134

>  <SCORE.RESTR>
3.96656

>  <SCORE.RESTR.CAVITY>
3.96656

>  <SCORE.RESTR.norm>
0.116663

>  <SCORE.SYSTEM>
0

>  <SCORE.SYSTEM.CONST>
0

>  <SCORE.SYSTEM.DIHEDRAL>
0

>  <SCORE.SYSTEM.SOLV>
0

>  <SCORE.SYSTEM.norm>
0

>  <SCORE.heavy>
34

>  <SCORE.norm>
-0.0181648

>  <RMSD>
3.825

$$$$
ligand
 OpenBabel01301917533D
libRbt.so/2013.1/901 2013/11/27
 34 36  0  0  0  0  0  0  0  0999 V2000
   18.5291   28.4508   33.2773 C   0  0  2  0  0  0  0  0  0  0  0  0
   19.7435   28.4455   34.0346 O   0  0  0  0  0  0  0  0  0  0  0  0
   22.3174   31.6098   35.3631 C   0  0  2  0  0  0  0  0  0  0  0  0
   22.7975   32.8668   35.9529 N   0  0  0  0  0  0  0  0  0  0  0  0
   23.2166   31.3808   38.3718 C   0  0  2  0  0  0  0  0  0  0  0  0
   17.3310   28.2271   34.2749 C   0  0  2  0  0  0  0  0  0  0  0  0
   17.2985   29.2816   35.3011 N   0  0  0  0  0  0  0  0  0  0  0  0
   21.2119   31.9688   34.3057 C   0  0  0  0  0  0  0  0  0  0  0  0
   24.2809   30.6648   39.2938 C   0  0  2  0  0  0  0  0  0  0  0  0
   25.3737   30.2041   38.5179 O   0  0  0  0  0  0  0  0  0  0  0  0
   17.4466   26.8269   34.9495 C   0  0  1  0  0  0  0  0  0  0  0  0
   16.3533   26.6183   35.8626 O   0  0  0  0  0  0  0  0  0  0  0  0
   20.7135   30.6270   33.6625 C   0  0  2  0  0  0  0  0  0  0  0  0
   19.6535   30.8921   32.6484 N   0  0  0  0  0  0  0  0  0  0  0  0
   23.5727   29.4547   40.0125 C   0  0  1  0  0  0  0  0  0  0  0  0
   24.5268   28.7179   40.8656 N   0  0  0  0  0  0  0  0  0  0  0  0
   17.4749   25.7512   33.8387 C   0  0  2  0  0  0  0  0  0  0  0  0
   17.5685   24.4550   34.4381 O   0  0  0  0  0  0  0  0  0  0  0  0
   20.1398   29.6697   34.7505 C   0  0  2  0  0  0  0  0  0  0  0  0
   22.3841   29.9963   40.8682 C   0  0  1  0  0  0  0  0  0  0  0  0
   22.9071   30.8740   41.8599 O   0  0  0  0  0  0  0  0  0  0  0  0
   18.7073   26.0407   32.8777 C   0  0  2  0  0  0  0  0  0  0  0  0
   18.5971   27.3885   32.2766 O   0  0  0  0  0  0  0  0  0  0  0  0
   21.2370   29.3906   35.8135 C   0  0  2  0  0  0  0  0  0  0  0  0
   20.6777   28.5395   36.8118 O   0  0  0  0  0  0  0  0  0  0  0  0
   21.4017   30.7726   39.9336 C   0  0  0  0  0  0  0  0  0  0  0  0
   22.0968   31.8609   39.2051 O   0  0  0  0  0  0  0  0  0  0  0  0
   18.8189   25.0090   31.7186 C   0  0  2  0  0  0  0  0  0  0  0  0
   17.5043   24.6333   31.2932 O   0  0  0  0  0  0  0  0  0  0  0  0
   21.7107   30.6912   36.5080 C   0  0  1  0  0  0  0  0  0  0  0  0
   22.7497   30.3348   37.4609 O   0  0  0  0  0  0  0  0  0  0  0  0
   19.5465   23.7516   32.1410 C   0  0  0  0  0  0  0  0  0  0  0  0
   21.6301   28.8752   41.5848 C   0  0  0  0  0  0  0  0  0  0  0  0
   24.9040   27.4786   40.1427 C   0  0  0  0  0  0  0  0  0  0  0  0
  1  2  1  1  0  0  0
  1  6  1  0  0  0  0
  1 23  1  0  0  0  0
  3  4  1  1  0  0  0
  3  8  1  0  0  0  0
  3 30  1  0  0  0  0
  5  9  1  0  0  0  0
  5 27  1  0  0  0  0
  5 31  1  6  0  0  0
  6  7  1  1  0  0  0
  6 11  1  0  0  0  0
  8 13  1  0  0  0  0
  9 10  1  6  0  0  0
  9 15  1  0  0  0  0
 11 12  1  1  0  0  0
 11 17  1  0  0  0  0
 13 14  1  6  0  0  0
 13 19  1  0  0  0  0
 15 16  1  1  0  0  0
 15 20  1  0  0  0  0
 16 34  1  0  0  0  0
 17 18  1  1  0  0  0
 17 22  1  0  0  0  0
 19  2  1  6  0  0  0
 19 24  1  0  0  0  0
 20 21  1  1  0  0  0
 20 26  1  0  0  0  0
 20 33  1  0  0  0  0
 22 23  1  6  0  0  0
 22 28  1  0  0  0  0
 24 25  1  1  0  0  0
 24 30  1  0  0  0  0
 26 27  1  0  0  0  0
 28 29  1  1  0  0  0
 28 32  1  0  0  0  0
 30 31  1  1  0  0  0
M  END
>  <CHROM.1>
-80.69448241,-76.99523142,-102.86063745,35.75870391,73.01350463,177.85417677
20.71426048,28.83539306,36.19883920,-2.98473789,0.96952062,2.40371348

>  <Name>
ligand

>  <RI>
0

>  <Rbt.Current_Directory>
/home/itssahil/PROJECTS/Mol_Feturizer/New_Systems/rnas/4p3s

>  <Rbt.Executable>
rbdock ($Id: //depot/dev/client3/rdock/2013.1/src/exe/rbdock.cxx#4 $)

>  <Rbt.Library>
libRbt.so (2013.1, Build901 2013/11/27)

>  <Rbt.Parameter_File>
/export/apps/rDock/src/rDock_2013.1_src/data/scripts/dock_solv.prm

>  <Rbt.Receptor>
prm/pocket_docking_4.prm

>  <SCORE>
-7.1077

>  <SCORE.INTER>
-5.01785

>  <SCORE.INTER.CONST>
1

>  <SCORE.INTER.POLAR>
0

>  <SCORE.INTER.ROT>
6

>  <SCORE.INTER.SOLV>
12.9964

>  <SCORE.INTER.VDW>
-15.2774

>  <SCORE.INTER.norm>
-0.147584

>  <SCORE.INTRA>
-2.08985

>  <SCORE.INTRA.DIHEDRAL>
-8.81543

>  <SCORE.INTRA.DIHEDRAL.0>
15.8194

>  <SCORE.INTRA.POLAR>
0

>  <SCORE.INTRA.POLAR.0>
0

>  <SCORE.INTRA.REPUL>
0

>  <SCORE.INTRA.REPUL.0>
0

>  <SCORE.INTRA.SOLV>
2.96798

>  <SCORE.INTRA.SOLV.lig_0>
-71.9159

>  <SCORE.INTRA.VDW>
0.833877

>  <SCORE.INTRA.VDW.0>
-3.53918

>  <SCORE.INTRA.norm>
-0.0614661

>  <SCORE.RESTR>
0

>  <SCORE.RESTR.CAVITY>
0

>  <SCORE.RESTR.norm>
0

>  <SCORE.SYSTEM>
0

>  <SCORE.SYSTEM.CONST>
0

>  <SCORE.SYSTEM.DIHEDRAL>
0

>  <SCORE.SYSTEM.SOLV>
0

>  <SCORE.SYSTEM.norm>
0

>  <SCORE.heavy>
34

>  <SCORE.norm>
-0.20905

>  <RMSD>
3.860

$$$$
ligand
 OpenBabel01301917533D
libRbt.so/2013.1/901 2013/11/27
 34 36  0  0  0  0  0  0  0  0999 V2000
   17.2251   27.6429   34.3725 C   0  0  2  0  0  0  0  0  0  0  0  0
   17.9949   27.4808   35.5680 O   0  0  0  0  0  0  0  0  0  0  0  0
   21.6489   29.6603   36.1160 C   0  0  2  0  0  0  0  0  0  0  0  0
   23.0765   29.9954   36.2082 N   0  0  0  0  0  0  0  0  0  0  0  0
   20.5762   31.5428   33.8621 C   0  0  2  0  0  0  0  0  0  0  0  0
   15.7540   27.1660   34.6710 C   0  0  2  0  0  0  0  0  0  0  0  0
   15.1623   27.9457   35.7701 N   0  0  0  0  0  0  0  0  0  0  0  0
   21.3810   28.4407   37.0700 C   0  0  0  0  0  0  0  0  0  0  0  0
   20.5340   32.1810   32.4177 C   0  0  2  0  0  0  0  0  0  0  0  0
   20.0260   31.2464   31.4812 O   0  0  0  0  0  0  0  0  0  0  0  0
   15.7414   25.6481   35.0242 C   0  0  1  0  0  0  0  0  0  0  0  0
   14.3985   25.2079   35.2980 O   0  0  0  0  0  0  0  0  0  0  0  0
   19.8525   28.0960   36.9854 C   0  0  2  0  0  0  0  0  0  0  0  0
   19.5254   26.9380   37.8654 N   0  0  0  0  0  0  0  0  0  0  0  0
   21.9997   32.6055   32.0255 C   0  0  1  0  0  0  0  0  0  0  0  0
   22.0352   33.1788   30.6650 N   0  0  0  0  0  0  0  0  0  0  0  0
   16.3679   24.8678   33.8448 C   0  0  2  0  0  0  0  0  0  0  0  0
   16.3549   23.4684   34.1440 O   0  0  0  0  0  0  0  0  0  0  0  0
   19.4424   27.7472   35.5227 C   0  0  2  0  0  0  0  0  0  0  0  0
   22.5243   33.6439   33.0670 C   0  0  1  0  0  0  0  0  0  0  0  0
   21.6867   34.7941   33.0166 O   0  0  0  0  0  0  0  0  0  0  0  0
   17.8463   25.4005   33.6070 C   0  0  2  0  0  0  0  0  0  0  0  0
   17.8388   26.8502   33.3097 O   0  0  0  0  0  0  0  0  0  0  0  0
   19.7828   28.9474   34.5981 C   0  0  2  0  0  0  0  0  0  0  0  0
   19.4276   28.5909   33.2637 O   0  0  0  0  0  0  0  0  0  0  0  0
   22.4662   33.0039   34.4913 C   0  0  0  0  0  0  0  0  0  0  0  0
   21.0968   32.5394   34.8184 O   0  0  0  0  0  0  0  0  0  0  0  0
   18.5626   24.6760   32.4312 C   0  0  2  0  0  0  0  0  0  0  0  0
   17.6616   24.5701   31.3234 O   0  0  0  0  0  0  0  0  0  0  0  0
   21.2958   29.2775   34.6156 C   0  0  1  0  0  0  0  0  0  0  0  0
   21.5122   30.4235   33.7470 O   0  0  0  0  0  0  0  0  0  0  0  0
   19.0037   23.2781   32.8053 C   0  0  0  0  0  0  0  0  0  0  0  0
   23.9551   34.0922   32.7657 C   0  0  0  0  0  0  0  0  0  0  0  0
   22.4937   32.1098   29.7441 C   0  0  0  0  0  0  0  0  0  0  0  0
  1  2  1  1  0  0  0
  1  6  1  0  0  0  0
  1 23  1  0  0  0  0
  3  4  1  6  0  0  0
  3  8  1  0  0  0  0
  3 30  1  0  0  0  0
  5  9  1  0  0  0  0
  5 27  1  0  0  0  0
  5 31  1  6  0  0  0
  6  7  1  1  0  0  0
  6 11  1  0  0  0  0
  8 13  1  0  0  0  0
  9 10  1  6  0  0  0
  9 15  1  0  0  0  0
 11 12  1  6  0  0  0
 11 17  1  0  0  0  0
 13 14  1  1  0  0  0
 13 19  1  0  0  0  0
 15 16  1  6  0  0  0
 15 20  1  0  0  0  0
 16 34  1  0  0  0  0
 17 18  1  1  0  0  0
 17 22  1  0  0  0  0
 19  2  1  1  0  0  0
 19 24  1  0  0  0  0
 20 21  1  6  0  0  0
 20 26  1  0  0  0  0
 20 33  1  0  0  0  0
 22 23  1  6  0  0  0
 22 28  1  0  0  0  0
 24 25  1  6  0  0  0
 24 30  1  0  0  0  0
 26 27  1  0  0  0  0
 28 29  1  6  0  0  0
 28 32  1  0  0  0  0
 30 31  1  6  0  0  0
M  END
>  <CHROM.1>
174.74735691,155.89287890,-99.11200003,44.51692889,-70.85610478,-150.00971517
19.58083891,28.90840825,33.97975388,2.88865082,0.93859557,1.69752234

>  <Name>
ligand

>  <RI>
0

>  <Rbt.Current_Directory>
/home/itssahil/PROJECTS/Mol_Feturizer/New_Systems/rnas/4p3s

>  <Rbt.Executable>
rbdock ($Id: //depot/dev/client3/rdock/2013.1/src/exe/rbdock.cxx#4 $)

>  <Rbt.Library>
libRbt.so (2013.1, Build901 2013/11/27)

>  <Rbt.Parameter_File>
/export/apps/rDock/src/rDock_2013.1_src/data/scripts/dock_solv.prm

>  <Rbt.Receptor>
prm/blind_docking_80.prm

>  <SCORE>
-4.956

>  <SCORE.INTER>
-6.99011

>  <SCORE.INTER.CONST>
1

>  <SCORE.INTER.POLAR>
0

>  <SCORE.INTER.ROT>
6

>  <SCORE.INTER.SOLV>
21.3944

>  <SCORE.INTER.VDW>
-19.3916

>  <SCORE.INTER.norm>
-0.205591

>  <SCORE.INTRA>
0.356875

>  <SCORE.INTRA.DIHEDRAL>
-7.24769

>  <SCORE.INTRA.DIHEDRAL.0>
15.8194

>  <SCORE.INTRA.POLAR>
0

>  <SCORE.INTRA.POLAR.0>
0

>  <SCORE.INTRA.REPUL>
0

>  <SCORE.INTRA.REPUL.0>
0

>  <SCORE.INTRA.SOLV>
-0.163377

>  <SCORE.INTRA.SOLV.lig_0>
-71.9159

>  <SCORE.INTRA.VDW>
4.06241

>  <SCORE.INTRA.VDW.0>
-3.53918

>  <SCORE.INTRA.norm>
0.0104963

>  <SCORE.RESTR>
1.67723

>  <SCORE.RESTR.CAVITY>
1.67723

>  <SCORE.RESTR.norm>
0.0493302

>  <SCORE.SYSTEM>
0

>  <SCORE.SYSTEM.CONST>
0

>  <SCORE.SYSTEM.DIHEDRAL>
0

>  <SCORE.SYSTEM.SOLV>
0

>  <SCORE.SYSTEM.norm>
0

>  <SCORE.heavy>
34

>  <SCORE.norm>
-0.145765

>  <RMSD>
3.899

$$$$
ligand
 OpenBabel01301917533D
libRbt.so/2013.1/901 2013/11/27
 34 36  0  0  0  0  0  0  0  0999 V2000
   19.4305   25.8944   35.3775 C   0  0  2  0  0  0  0  0  0  0  0  0
   19.7459   26.9960   34.5201 O   0  0  0  0  0  0  0  0  0  0  0  0
   21.2643   30.9313   35.3015 C   0  0  2  0  0  0  0  0  0  0  0  0
   21.3614   32.3315   35.7357 N   0  0  0  0  0  0  0  0  0  0  0  0
   22.1636   29.5260   38.7727 C   0  0  2  0  0  0  0  0  0  0  0  0
   19.1626   24.6332   34.4729 C   0  0  2  0  0  0  0  0  0  0  0  0
   20.3406   24.3188   33.6485 N   0  0  0  0  0  0  0  0  0  0  0  0
   20.0166   30.8095   34.3540 C   0  0  0  0  0  0  0  0  0  0  0  0
   21.1711   30.4862   39.5399 C   0  0  2  0  0  0  0  0  0  0  0  0
   19.8912   30.4587   38.9320 O   0  0  0  0  0  0  0  0  0  0  0  0
   17.9216   24.8776   33.5624 C   0  0  1  0  0  0  0  0  0  0  0  0
   17.6732   23.7270   32.7336 O   0  0  0  0  0  0  0  0  0  0  0  0
   19.9251   29.3178   33.8755 C   0  0  2  0  0  0  0  0  0  0  0  0
   18.7543   29.1263   32.9728 N   0  0  0  0  0  0  0  0  0  0  0  0
   21.7658   31.9445   39.4949 C   0  0  1  0  0  0  0  0  0  0  0  0
   20.8637   32.9016   40.1664 N   0  0  0  0  0  0  0  0  0  0  0  0
   16.7093   25.2012   34.4667 C   0  0  2  0  0  0  0  0  0  0  0  0
   15.5545   25.4174   33.6496 O   0  0  0  0  0  0  0  0  0  0  0  0
   19.7853   28.3526   35.0913 C   0  0  2  0  0  0  0  0  0  0  0  0
   23.1674   31.9436   40.1832 C   0  0  1  0  0  0  0  0  0  0  0  0
   22.9999   31.5604   41.5443 O   0  0  0  0  0  0  0  0  0  0  0  0
   17.0527   26.4818   35.3433 C   0  0  2  0  0  0  0  0  0  0  0  0
   18.2548   26.2417   36.1723 O   0  0  0  0  0  0  0  0  0  0  0  0
   20.9998   28.5479   36.0392 C   0  0  2  0  0  0  0  0  0  0  0  0
   20.8318   27.6777   37.1565 O   0  0  0  0  0  0  0  0  0  0  0  0
   24.0895   30.9172   39.4499 C   0  0  0  0  0  0  0  0  0  0  0  0
   23.4835   29.5642   39.4324 O   0  0  0  0  0  0  0  0  0  0  0  0
   15.8900   26.8863   36.2946 C   0  0  2  0  0  0  0  0  0  0  0  0
   14.7064   27.1154   35.5221 O   0  0  0  0  0  0  0  0  0  0  0  0
   21.0857   29.9985   36.5745 C   0  0  1  0  0  0  0  0  0  0  0  0
   22.2610   30.0906   37.4260 O   0  0  0  0  0  0  0  0  0  0  0  0
   16.1948   28.1534   37.0627 C   0  0  0  0  0  0  0  0  0  0  0  0
   23.8223   33.3255   40.1624 C   0  0  0  0  0  0  0  0  0  0  0  0
   20.3728   33.8482   39.1350 C   0  0  0  0  0  0  0  0  0  0  0  0
  1  2  1  6  0  0  0
  1  6  1  0  0  0  0
  1 23  1  0  0  0  0
  3  4  1  1  0  0  0
  3  8  1  0  0  0  0
  3 30  1  0  0  0  0
  5  9  1  0  0  0  0
  5 27  1  0  0  0  0
  5 31  1  6  0  0  0
  6  7  1  6  0  0  0
  6 11  1  0  0  0  0
  8 13  1  0  0  0  0
  9 10  1  6  0  0  0
  9 15  1  0  0  0  0
 11 12  1  1  0  0  0
 11 17  1  0  0  0  0
 13 14  1  6  0  0  0
 13 19  1  0  0  0  0
 15 16  1  1  0  0  0
 15 20  1  0  0  0  0
 16 34  1  0  0  0  0
 17 18  1  6  0  0  0
 17 22  1  0  0  0  0
 19  2  1  6  0  0  0
 19 24  1  0  0  0  0
 20 21  1  1  0  0  0
 20 26  1  0  0  0  0
 20 33  1  0  0  0  0
 22 23  1  1  0  0  0
 22 28  1  0  0  0  0
 24 25  1  1  0  0  0
 24 30  1  0  0  0  0
 26 27  1  0  0  0  0
 28 29  1  6  0  0  0
 28 32  1  0  0  0  0
 30 31  1  1  0  0  0
M  END
>  <CHROM.1>
168.35562520,-171.20701121,-115.14266721,-57.03339265,167.45548301,-69.40295965
19.94327083,28.80083450,36.61363700,-2.12390018,-0.03076189,0.68652237

>  <Name>
ligand

>  <RI>
0

>  <Rbt.Current_Directory>
/home/itssahil/PROJECTS/Mol_Feturizer/New_Systems/rnas/4p3s

>  <Rbt.Executable>
rbdock ($Id: //depot/dev/client3/rdock/2013.1/src/exe/rbdock.cxx#4 $)

>  <Rbt.Library>
libRbt.so (2013.1, Build901 2013/11/27)

>  <Rbt.Parameter_File>
/export/apps/rDock/src/rDock_2013.1_src/data/scripts/dock_solv.prm

>  <Rbt.Receptor>
prm/pocket_docking_3.prm

>  <SCORE>
-11.62

>  <SCORE.INTER>
-6.33241

>  <SCORE.INTER.CONST>
1

>  <SCORE.INTER.POLAR>
0

>  <SCORE.INTER.ROT>
6

>  <SCORE.INTER.SOLV>
17.4702

>  <SCORE.INTER.VDW>
-17.645

>  <SCORE.INTER.norm>
-0.186247

>  <SCORE.INTRA>
-5.31387

>  <SCORE.INTRA.DIHEDRAL>
-12.3014

>  <SCORE.INTRA.DIHEDRAL.0>
15.8194

>  <SCORE.INTRA.POLAR>
0

>  <SCORE.INTRA.POLAR.0>
0

>  <SCORE.INTRA.REPUL>
0

>  <SCORE.INTRA.REPUL.0>
0

>  <SCORE.INTRA.SOLV>
0.179202

>  <SCORE.INTRA.SOLV.lig_0>
-71.9159

>  <SCORE.INTRA.VDW>
0.747243

>  <SCORE.INTRA.VDW.0>
-3.53918

>  <SCORE.INTRA.norm>
-0.15629

>  <SCORE.RESTR>
0.0262533

>  <SCORE.RESTR.CAVITY>
0.0262533

>  <SCORE.RESTR.norm>
0.000772156

>  <SCORE.SYSTEM>
0

>  <SCORE.SYSTEM.CONST>
0

>  <SCORE.SYSTEM.DIHEDRAL>
0

>  <SCORE.SYSTEM.SOLV>
0

>  <SCORE.SYSTEM.norm>
0

>  <SCORE.heavy>
34

>  <SCORE.norm>
-0.341765

>  <RMSD>
4.034

$$$$
ligand
 OpenBabel01301917533D
libRbt.so/2013.1/901 2013/11/27
 34 36  0  0  0  0  0  0  0  0999 V2000
   18.7692   27.1450   36.1970 C   0  0  2  0  0  0  0  0  0  0  0  0
   19.0663   28.1444   35.2167 O   0  0  0  0  0  0  0  0  0  0  0  0
   20.8017   31.9935   35.9752 C   0  0  2  0  0  0  0  0  0  0  0  0
   20.9542   33.4241   36.2733 N   0  0  0  0  0  0  0  0  0  0  0  0
   22.4675   30.8741   38.1655 C   0  0  2  0  0  0  0  0  0  0  0  0
   18.5052   25.7867   35.4445 C   0  0  2  0  0  0  0  0  0  0  0  0
   19.6786   25.3905   34.6495 N   0  0  0  0  0  0  0  0  0  0  0  0
   19.8388   31.8619   34.7405 C   0  0  0  0  0  0  0  0  0  0  0  0
   22.9800   30.5058   39.6136 C   0  0  2  0  0  0  0  0  0  0  0  0
   22.1976   29.4586   40.1611 O   0  0  0  0  0  0  0  0  0  0  0  0
   17.2538   25.9154   34.5245 C   0  0  1  0  0  0  0  0  0  0  0  0
   17.0089   24.6759   33.8346 O   0  0  0  0  0  0  0  0  0  0  0  0
   19.6919   30.3348   34.4109 C   0  0  2  0  0  0  0  0  0  0  0  0
   18.7824   30.1332   33.2471 N   0  0  0  0  0  0  0  0  0  0  0  0
   22.8748   31.7943   40.5141 C   0  0  1  0  0  0  0  0  0  0  0  0
   23.3067   31.5067   41.8967 N   0  0  0  0  0  0  0  0  0  0  0  0
   16.0467   26.3296   35.3983 C   0  0  2  0  0  0  0  0  0  0  0  0
   14.8825   26.4416   34.5735 O   0  0  0  0  0  0  0  0  0  0  0  0
   19.1225   29.5553   35.6346 C   0  0  2  0  0  0  0  0  0  0  0  0
   23.7570   32.9227   39.8924 C   0  0  1  0  0  0  0  0  0  0  0  0
   25.1107   32.4815   39.8827 O   0  0  0  0  0  0  0  0  0  0  0  0
   16.3856   27.7045   36.1200 C   0  0  2  0  0  0  0  0  0  0  0  0
   17.5974   27.5706   36.9588 O   0  0  0  0  0  0  0  0  0  0  0  0
   20.0626   29.7624   36.8531 C   0  0  2  0  0  0  0  0  0  0  0  0
   19.5034   29.0663   37.9650 O   0  0  0  0  0  0  0  0  0  0  0  0
   23.2741   33.1939   38.4313 C   0  0  0  0  0  0  0  0  0  0  0  0
   23.3056   31.9570   37.6145 O   0  0  0  0  0  0  0  0  0  0  0  0
   15.2278   28.2048   37.0307 C   0  0  2  0  0  0  0  0  0  0  0  0
   14.0520   28.3965   36.2364 O   0  0  0  0  0  0  0  0  0  0  0  0
   20.1842   31.2571   37.2397 C   0  0  1  0  0  0  0  0  0  0  0  0
   21.0991   31.3533   38.3658 O   0  0  0  0  0  0  0  0  0  0  0  0
   15.5552   29.5218   37.6994 C   0  0  0  0  0  0  0  0  0  0  0  0
   23.6921   34.2189   40.7014 C   0  0  0  0  0  0  0  0  0  0  0  0
   22.0913   31.1855   42.6843 C   0  0  0  0  0  0  0  0  0  0  0  0
  1  2  1  6  0  0  0
  1  6  1  0  0  0  0
  1 23  1  0  0  0  0
  3  4  1  1  0  0  0
  3  8  1  0  0  0  0
  3 30  1  0  0  0  0
  5  9  1  0  0  0  0
  5 27  1  0  0  0  0
  5 31  1  1  0  0  0
  6  7  1  6  0  0  0
  6 11  1  0  0  0  0
  8 13  1  0  0  0  0
  9 10  1  1  0  0  0
  9 15  1  0  0  0  0
 11 12  1  1  0  0  0
 11 17  1  0  0  0  0
 13 14  1  6  0  0  0
 13 19  1  0  0  0  0
 15 16  1  1  0  0  0
 15 20  1  0  0  0  0
 16 34  1  0  0  0  0
 17 18  1  6  0  0  0
 17 22  1  0  0  0  0
 19  2  1  6  0  0  0
 19 24  1  0  0  0  0
 20 21  1  6  0  0  0
 20 26  1  0  0  0  0
 20 33  1  0  0  0  0
 22 23  1  1  0  0  0
 22 28  1  0  0  0  0
 24 25  1  1  0  0  0
 24 30  1  0  0  0  0
 26 27  1  0  0  0  0
 28 29  1  6  0  0  0
 28 32  1  0  0  0  0
 30 31  1  1  0  0  0
M  END
>  <CHROM.1>
169.47169832,170.82980996,-94.78526269,-59.80553775,-55.05850575,-155.56662570
19.84050740,29.69400257,37.20085334,2.84294003,-0.77617749,-1.26687473

>  <Name>
ligand

>  <RI>
0

>  <Rbt.Current_Directory>
/home/itssahil/PROJECTS/Mol_Feturizer/New_Systems/rnas/4p3s

>  <Rbt.Executable>
rbdock ($Id: //depot/dev/client3/rdock/2013.1/src/exe/rbdock.cxx#4 $)

>  <Rbt.Library>
libRbt.so (2013.1, Build901 2013/11/27)

>  <Rbt.Parameter_File>
/export/apps/rDock/src/rDock_2013.1_src/data/scripts/dock_solv.prm

>  <Rbt.Receptor>
prm/pocket_docking_6.prm

>  <SCORE>
-10.7192

>  <SCORE.INTER>
-6.89072

>  <SCORE.INTER.CONST>
1

>  <SCORE.INTER.POLAR>
0

>  <SCORE.INTER.ROT>
6

>  <SCORE.INTER.SOLV>
13.6739

>  <SCORE.INTER.VDW>
-16.7518

>  <SCORE.INTER.norm>
-0.202668

>  <SCORE.INTRA>
-3.82844

>  <SCORE.INTRA.DIHEDRAL>
-11.3472

>  <SCORE.INTRA.DIHEDRAL.0>
15.8194

>  <SCORE.INTRA.POLAR>
0

>  <SCORE.INTRA.POLAR.0>
0

>  <SCORE.INTRA.REPUL>
0

>  <SCORE.INTRA.REPUL.0>
0

>  <SCORE.INTRA.SOLV>
0.253999

>  <SCORE.INTRA.SOLV.lig_0>
-71.9159

>  <SCORE.INTRA.VDW>
1.71816

>  <SCORE.INTRA.VDW.0>
-3.53918

>  <SCORE.INTRA.norm>
-0.112601

>  <SCORE.RESTR>
0

>  <SCORE.RESTR.CAVITY>
0

>  <SCORE.RESTR.norm>
0

>  <SCORE.SYSTEM>
0

>  <SCORE.SYSTEM.CONST>
0

>  <SCORE.SYSTEM.DIHEDRAL>
0

>  <SCORE.SYSTEM.SOLV>
0

>  <SCORE.SYSTEM.norm>
0

>  <SCORE.heavy>
34

>  <SCORE.norm>
-0.315269

>  <RMSD>
4.037

$$$$
ligand
 OpenBabel01301917533D
libRbt.so/2013.1/901 2013/11/27
 34 36  0  0  0  0  0  0  0  0999 V2000
   18.9116   26.9505   35.9262 C   0  0  2  0  0  0  0  0  0  0  0  0
   19.1706   27.7926   34.7983 O   0  0  0  0  0  0  0  0  0  0  0  0
   20.9271   31.7036   34.9420 C   0  0  2  0  0  0  0  0  0  0  0  0
   21.0878   33.1619   35.0203 N   0  0  0  0  0  0  0  0  0  0  0  0
   22.6587   31.0168   37.1965 C   0  0  2  0  0  0  0  0  0  0  0  0
   18.5799   25.5067   35.3912 C   0  0  2  0  0  0  0  0  0  0  0  0
   19.6983   24.9708   34.5987 N   0  0  0  0  0  0  0  0  0  0  0  0
   19.9412   31.3936   33.7584 C   0  0  0  0  0  0  0  0  0  0  0  0
   23.0398   30.2345   38.5149 C   0  0  2  0  0  0  0  0  0  0  0  0
   22.2316   29.0785   38.6524 O   0  0  0  0  0  0  0  0  0  0  0  0
   17.2804   25.5367   34.5313 C   0  0  1  0  0  0  0  0  0  0  0  0
   16.9736   24.2188   34.0400 O   0  0  0  0  0  0  0  0  0  0  0  0
   19.7853   29.8351   33.6633 C   0  0  2  0  0  0  0  0  0  0  0  0
   18.8539   29.4663   32.5593 N   0  0  0  0  0  0  0  0  0  0  0  0
   22.8226   31.2015   39.7397 C   0  0  1  0  0  0  0  0  0  0  0  0
   23.1279   30.5164   41.0117 N   0  0  0  0  0  0  0  0  0  0  0  0
   16.1333   26.1025   35.4007 C   0  0  2  0  0  0  0  0  0  0  0  0
   14.9260   26.1272   34.6326 O   0  0  0  0  0  0  0  0  0  0  0  0
   19.2372   29.2497   34.9997 C   0  0  2  0  0  0  0  0  0  0  0  0
   23.7354   32.4563   39.5651 C   0  0  1  0  0  0  0  0  0  0  0  0
   25.0931   32.0272   39.5570 O   0  0  0  0  0  0  0  0  0  0  0  0
   16.5384   27.5564   35.8989 C   0  0  2  0  0  0  0  0  0  0  0  0
   17.7936   27.5107   36.6815 O   0  0  0  0  0  0  0  0  0  0  0  0
   20.2002   29.6320   36.1564 C   0  0  2  0  0  0  0  0  0  0  0  0
   19.6604   29.1123   37.3698 O   0  0  0  0  0  0  0  0  0  0  0  0
   23.3871   33.1493   38.2087 C   0  0  0  0  0  0  0  0  0  0  0  0
   23.5219   32.2076   37.0716 O   0  0  0  0  0  0  0  0  0  0  0  0
   15.4441   28.2113   36.7899 C   0  0  2  0  0  0  0  0  0  0  0  0
   14.2049   28.2366   36.0731 O   0  0  0  0  0  0  0  0  0  0  0  0
   20.3318   31.1671   36.3132 C   0  0  1  0  0  0  0  0  0  0  0  0
   21.2676   31.4261   37.3957 O   0  0  0  0  0  0  0  0  0  0  0  0
   15.7907   29.6349   37.1667 C   0  0  0  0  0  0  0  0  0  0  0  0
   23.5669   33.4572   40.7090 C   0  0  0  0  0  0  0  0  0  0  0  0
   21.8429   30.0398   41.5795 C   0  0  0  0  0  0  0  0  0  0  0  0
  1  2  1  6  0  0  0
  1  6  1  0  0  0  0
  1 23  1  0  0  0  0
  3  4  1  1  0  0  0
  3  8  1  0  0  0  0
  3 30  1  0  0  0  0
  5  9  1  0  0  0  0
  5 27  1  0  0  0  0
  5 31  1  1  0  0  0
  6  7  1  6  0  0  0
  6 11  1  0  0  0  0
  8 13  1  0  0  0  0
  9 10  1  1  0  0  0
  9 15  1  0  0  0  0
 11 12  1  1  0  0  0
 11 17  1  0  0  0  0
 13 14  1  6  0  0  0
 13 19  1  0  0  0  0
 15 16  1  1  0  0  0
 15 20  1  0  0  0  0
 16 34  1  0  0  0  0
 17 18  1  6  0  0  0
 17 22  1  0  0  0  0
 19  2  1  6  0  0  0
 19 24  1  0  0  0  0
 20 21  1  6  0  0  0
 20 26  1  0  0  0  0
 20 33  1  0  0  0  0
 22 23  1  1  0  0  0
 22 28  1  0  0  0  0
 24 25  1  1  0  0  0
 24 30  1  0  0  0  0
 26 27  1  0  0  0  0
 28 29  1  6  0  0  0
 28 32  1  0  0  0  0
 30 31  1  1  0  0  0
M  END
>  <CHROM.1>
167.68519960,169.81142312,-97.28382285,-55.90976019,-49.98700375,-131.71737523
19.91784794,29.39637374,36.66737914,2.99386060,-0.77957595,-1.12327859

>  <Name>
ligand

>  <RI>
0

>  <Rbt.Current_Directory>
/home/itssahil/PROJECTS/Mol_Feturizer/New_Systems/rnas/4p3s

>  <Rbt.Executable>
rbdock ($Id: //depot/dev/client3/rdock/2013.1/src/exe/rbdock.cxx#4 $)

>  <Rbt.Library>
libRbt.so (2013.1, Build901 2013/11/27)

>  <Rbt.Parameter_File>
/export/apps/rDock/src/rDock_2013.1_src/data/scripts/dock_solv.prm

>  <Rbt.Receptor>
prm/pocket_docking_4.prm

>  <SCORE>
-7.95013

>  <SCORE.INTER>
-6.22642

>  <SCORE.INTER.CONST>
1

>  <SCORE.INTER.POLAR>
0

>  <SCORE.INTER.ROT>
6

>  <SCORE.INTER.SOLV>
15.7031

>  <SCORE.INTER.VDW>
-16.9853

>  <SCORE.INTER.norm>
-0.18313

>  <SCORE.INTRA>
-1.72826

>  <SCORE.INTRA.DIHEDRAL>
-6.61564

>  <SCORE.INTRA.DIHEDRAL.0>
15.8194

>  <SCORE.INTRA.POLAR>
0

>  <SCORE.INTRA.POLAR.0>
0

>  <SCORE.INTRA.REPUL>
0

>  <SCORE.INTRA.REPUL.0>
0

>  <SCORE.INTRA.SOLV>
-0.0797117

>  <SCORE.INTRA.SOLV.lig_0>
-71.9159

>  <SCORE.INTRA.VDW>
1.61942

>  <SCORE.INTRA.VDW.0>
-3.53918

>  <SCORE.INTRA.norm>
-0.0508311

>  <SCORE.RESTR>
0.0045456

>  <SCORE.RESTR.CAVITY>
0.0045456

>  <SCORE.RESTR.norm>
0.000133694

>  <SCORE.SYSTEM>
0

>  <SCORE.SYSTEM.CONST>
0

>  <SCORE.SYSTEM.DIHEDRAL>
0

>  <SCORE.SYSTEM.SOLV>
0

>  <SCORE.SYSTEM.norm>
0

>  <SCORE.heavy>
34

>  <SCORE.norm>
-0.233827

>  <RMSD>
4.040

$$$$
ligand
 OpenBabel01301917533D
libRbt.so/2013.1/901 2013/11/27
 34 36  0  0  0  0  0  0  0  0999 V2000
   19.1750   27.0231   36.1805 C   0  0  2  0  0  0  0  0  0  0  0  0
   19.4405   27.9475   35.1208 O   0  0  0  0  0  0  0  0  0  0  0  0
   21.1564   31.8790   35.0803 C   0  0  2  0  0  0  0  0  0  0  0  0
   21.3399   33.3261   35.2556 N   0  0  0  0  0  0  0  0  0  0  0  0
   22.7316   32.7344   37.5199 C   0  0  2  0  0  0  0  0  0  0  0  0
   18.7510   25.6501   35.5356 C   0  0  2  0  0  0  0  0  0  0  0  0
   19.8134   25.1318   34.6589 N   0  0  0  0  0  0  0  0  0  0  0  0
   19.8255   31.6594   34.2743 C   0  0  0  0  0  0  0  0  0  0  0  0
   24.1214   32.5799   38.2547 C   0  0  2  0  0  0  0  0  0  0  0  0
   25.0701   31.9766   37.3918 O   0  0  0  0  0  0  0  0  0  0  0  0
   17.4275   25.8196   34.7304 C   0  0  1  0  0  0  0  0  0  0  0  0
   17.0363   24.5668   34.1389 O   0  0  0  0  0  0  0  0  0  0  0  0
   19.6405   30.1146   34.0709 C   0  0  2  0  0  0  0  0  0  0  0  0
   18.3876   29.8302   33.3146 N   0  0  0  0  0  0  0  0  0  0  0  0
   23.9032   31.6881   39.5351 C   0  0  1  0  0  0  0  0  0  0  0  0
   25.1772   31.4741   40.2507 N   0  0  0  0  0  0  0  0  0  0  0  0
   16.3404   26.3623   35.6874 C   0  0  2  0  0  0  0  0  0  0  0  0
   15.1117   26.5139   34.9696 O   0  0  0  0  0  0  0  0  0  0  0  0
   19.5774   29.3778   35.4429 C   0  0  2  0  0  0  0  0  0  0  0  0
   22.8650   32.3857   40.4699 C   0  0  1  0  0  0  0  0  0  0  0  0
   23.3972   33.6430   40.8741 O   0  0  0  0  0  0  0  0  0  0  0  0
   16.8370   27.7450   36.2938 C   0  0  2  0  0  0  0  0  0  0  0  0
   18.1130   27.5689   37.0224 O   0  0  0  0  0  0  0  0  0  0  0  0
   20.8779   29.6713   36.2392 C   0  0  2  0  0  0  0  0  0  0  0  0
   20.7810   29.0128   37.5004 O   0  0  0  0  0  0  0  0  0  0  0  0
   21.5355   32.5994   39.6772 C   0  0  0  0  0  0  0  0  0  0  0  0
   21.7669   33.3751   38.4351 O   0  0  0  0  0  0  0  0  0  0  0  0
   15.8081   28.3719   37.2780 C   0  0  2  0  0  0  0  0  0  0  0  0
   14.5695   28.5862   36.5923 O   0  0  0  0  0  0  0  0  0  0  0  0
   21.0609   31.1858   36.5060 C   0  0  1  0  0  0  0  0  0  0  0  0
   22.3102   31.3633   37.2288 O   0  0  0  0  0  0  0  0  0  0  0  0
   16.2747   29.7050   37.8198 C   0  0  0  0  0  0  0  0  0  0  0  0
   22.5827   31.5686   41.7314 C   0  0  0  0  0  0  0  0  0  0  0  0
   25.3543   30.0104   40.4150 C   0  0  0  0  0  0  0  0  0  0  0  0
  1  2  1  6  0  0  0
  1  6  1  0  0  0  0
  1 23  1  0  0  0  0
  3  4  1  1  0  0  0
  3  8  1  0  0  0  0
  3 30  1  0  0  0  0
  5  9  1  0  0  0  0
  5 27  1  0  0  0  0
  5 31  1  1  0  0  0
  6  7  1  6  0  0  0
  6 11  1  0  0  0  0
  8 13  1  0  0  0  0
  9 10  1  6  0  0  0
  9 15  1  0  0  0  0
 11 12  1  1  0  0  0
 11 17  1  0  0  0  0
 13 14  1  1  0  0  0
 13 19  1  0  0  0  0
 15 16  1  1  0  0  0
 15 20  1  0  0  0  0
 16 34  1  0  0  0  0
 17 18  1  6  0  0  0
 17 22  1  0  0  0  0
 19  2  1  6  0  0  0
 19 24  1  0  0  0  0
 20 21  1  1  0  0  0
 20 26  1  0  0  0  0
 20 33  1  0  0  0  0
 22 23  1  1  0  0  0
 22 28  1  0  0  0  0
 24 25  1  1  0  0  0
 24 30  1  0  0  0  0
 26 27  1  0  0  0  0
 28 29  1  6  0  0  0
 28 32  1  0  0  0  0
 30 31  1  1  0  0  0
M  END
>  <CHROM.1>
167.12918717,-171.63356357,-126.09618378,-58.92854464,60.97512420,-178.16046462
20.22899841,29.77182074,36.94891523,3.03417367,-0.78585804,-1.08895048

>  <Name>
ligand

>  <RI>
0

>  <Rbt.Current_Directory>
/home/itssahil/PROJECTS/Mol_Feturizer/New_Systems/rnas/4p3s

>  <Rbt.Executable>
rbdock ($Id: //depot/dev/client3/rdock/2013.1/src/exe/rbdock.cxx#4 $)

>  <Rbt.Library>
libRbt.so (2013.1, Build901 2013/11/27)

>  <Rbt.Parameter_File>
/export/apps/rDock/src/rDock_2013.1_src/data/scripts/dock_solv.prm

>  <Rbt.Receptor>
prm/pocket_docking_3.prm

>  <SCORE>
-11.5398

>  <SCORE.INTER>
-5.88116

>  <SCORE.INTER.CONST>
1

>  <SCORE.INTER.POLAR>
0

>  <SCORE.INTER.ROT>
6

>  <SCORE.INTER.SOLV>
16.531

>  <SCORE.INTER.VDW>
-17.0311

>  <SCORE.INTER.norm>
-0.172975

>  <SCORE.INTRA>
-5.80209

>  <SCORE.INTRA.DIHEDRAL>
-13.3785

>  <SCORE.INTRA.DIHEDRAL.0>
15.8194

>  <SCORE.INTRA.POLAR>
0

>  <SCORE.INTRA.POLAR.0>
0

>  <SCORE.INTRA.REPUL>
0

>  <SCORE.INTRA.REPUL.0>
0

>  <SCORE.INTRA.SOLV>
-0.103586

>  <SCORE.INTRA.SOLV.lig_0>
-71.9159

>  <SCORE.INTRA.VDW>
0.938957

>  <SCORE.INTRA.VDW.0>
-3.53918

>  <SCORE.INTRA.norm>
-0.17065

>  <SCORE.RESTR>
0.143455

>  <SCORE.RESTR.CAVITY>
0.143455

>  <SCORE.RESTR.norm>
0.00421927

>  <SCORE.SYSTEM>
0

>  <SCORE.SYSTEM.CONST>
0

>  <SCORE.SYSTEM.DIHEDRAL>
0

>  <SCORE.SYSTEM.SOLV>
0

>  <SCORE.SYSTEM.norm>
0

>  <SCORE.heavy>
34

>  <SCORE.norm>
-0.339406

>  <RMSD>
4.098

$$$$
ligand
 OpenBabel01301917533D
libRbt.so/2013.1/901 2013/11/27
 34 36  0  0  0  0  0  0  0  0999 V2000
   19.4341   25.7899   35.4472 C   0  0  2  0  0  0  0  0  0  0  0  0
   19.7953   26.9673   34.7180 O   0  0  0  0  0  0  0  0  0  0  0  0
   20.1542   31.1314   35.6841 C   0  0  2  0  0  0  0  0  0  0  0  0
   19.8291   32.5051   36.0914 N   0  0  0  0  0  0  0  0  0  0  0  0
   20.7044   31.8113   38.6223 C   0  0  2  0  0  0  0  0  0  0  0  0
   19.2453   24.6154   34.4149 C   0  0  2  0  0  0  0  0  0  0  0  0
   20.4816   24.3846   33.6505 N   0  0  0  0  0  0  0  0  0  0  0  0
   19.1884   30.7396   34.5081 C   0  0  0  0  0  0  0  0  0  0  0  0
   22.0158   32.6083   38.2476 C   0  0  2  0  0  0  0  0  0  0  0  0
   22.1022   32.7817   36.8437 O   0  0  0  0  0  0  0  0  0  0  0  0
   18.0680   24.9353   33.4450 C   0  0  1  0  0  0  0  0  0  0  0  0
   17.8919   23.8642   32.4995 O   0  0  0  0  0  0  0  0  0  0  0  0
   19.5494   29.2794   34.0610 C   0  0  2  0  0  0  0  0  0  0  0  0
   18.6640   28.8370   32.9462 N   0  0  0  0  0  0  0  0  0  0  0  0
   23.2549   31.7899   38.7740 C   0  0  1  0  0  0  0  0  0  0  0  0
   24.5199   32.4660   38.4224 N   0  0  0  0  0  0  0  0  0  0  0  0
   16.7918   25.1679   34.2872 C   0  0  2  0  0  0  0  0  0  0  0  0
   15.6942   25.4516   33.4137 O   0  0  0  0  0  0  0  0  0  0  0  0
   19.3979   28.2819   35.2490 C   0  0  2  0  0  0  0  0  0  0  0  0
   23.1369   31.6283   40.3227 C   0  0  1  0  0  0  0  0  0  0  0  0
   23.1607   32.9237   40.9132 O   0  0  0  0  0  0  0  0  0  0  0  0
   17.0576   26.3646   35.2988 C   0  0  2  0  0  0  0  0  0  0  0  0
   18.2018   26.0563   36.1853 O   0  0  0  0  0  0  0  0  0  0  0  0
   20.3148   28.7372   36.4167 C   0  0  2  0  0  0  0  0  0  0  0  0
   20.1340   27.8275   37.5000 O   0  0  0  0  0  0  0  0  0  0  0  0
   21.7865   30.9157   40.6545 C   0  0  0  0  0  0  0  0  0  0  0  0
   20.6330   31.6554   40.0884 O   0  0  0  0  0  0  0  0  0  0  0  0
   15.8266   26.6736   36.1985 C   0  0  2  0  0  0  0  0  0  0  0  0
   14.7890   27.2490   35.3969 O   0  0  0  0  0  0  0  0  0  0  0  0
   19.9467   30.1550   36.9194 C   0  0  1  0  0  0  0  0  0  0  0  0
   20.8700   30.5029   37.9876 O   0  0  0  0  0  0  0  0  0  0  0  0
   16.1573   27.6540   37.3021 C   0  0  0  0  0  0  0  0  0  0  0  0
   24.2976   30.8239   40.9098 C   0  0  0  0  0  0  0  0  0  0  0  0
   24.9680   31.9199   37.1179 C   0  0  0  0  0  0  0  0  0  0  0  0
  1  2  1  6  0  0  0
  1  6  1  0  0  0  0
  1 23  1  0  0  0  0
  3  4  1  1  0  0  0
  3  8  1  0  0  0  0
  3 30  1  0  0  0  0
  5  9  1  0  0  0  0
  5 27  1  0  0  0  0
  5 31  1  6  0  0  0
  6  7  1  6  0  0  0
  6 11  1  0  0  0  0
  8 13  1  0  0  0  0
  9 10  1  6  0  0  0
  9 15  1  0  0  0  0
 11 12  1  6  0  0  0
 11 17  1  0  0  0  0
 13 14  1  6  0  0  0
 13 19  1  0  0  0  0
 15 16  1  1  0  0  0
 15 20  1  0  0  0  0
 16 34  1  0  0  0  0
 17 18  1  6  0  0  0
 17 22  1  0  0  0  0
 19  2  1  6  0  0  0
 19 24  1  0  0  0  0
 20 21  1  1  0  0  0
 20 26  1  0  0  0  0
 20 33  1  0  0  0  0
 22 23  1  1  0  0  0
 22 28  1  0  0  0  0
 24 25  1  1  0  0  0
 24 30  1  0  0  0  0
 26 27  1  0  0  0  0
 28 29  1  6  0  0  0
 28 32  1  0  0  0  0
 30 31  1  1  0  0  0
M  END
>  <CHROM.1>
149.87370582,-163.59222303,-91.81196266,-69.72676490,64.84352206,-114.53940416
19.93160325,28.95115833,36.50178394,-2.17481091,0.18274486,0.77931722

>  <Name>
ligand

>  <RI>
0

>  <Rbt.Current_Directory>
/home/itssahil/PROJECTS/Mol_Feturizer/New_Systems/rnas/4p3s

>  <Rbt.Executable>
rbdock ($Id: //depot/dev/client3/rdock/2013.1/src/exe/rbdock.cxx#4 $)

>  <Rbt.Library>
libRbt.so (2013.1, Build901 2013/11/27)

>  <Rbt.Parameter_File>
/export/apps/rDock/src/rDock_2013.1_src/data/scripts/dock_solv.prm

>  <Rbt.Receptor>
prm/pocket_docking_2.prm

>  <SCORE>
9.95401

>  <SCORE.INTER>
-0.117537

>  <SCORE.INTER.CONST>
1

>  <SCORE.INTER.POLAR>
0

>  <SCORE.INTER.ROT>
6

>  <SCORE.INTER.SOLV>
20.0281

>  <SCORE.INTER.VDW>
-14.3544

>  <SCORE.INTER.norm>
-0.00345698

>  <SCORE.INTRA>
2.16776

>  <SCORE.INTRA.DIHEDRAL>
-2.73482

>  <SCORE.INTRA.DIHEDRAL.0>
15.8194

>  <SCORE.INTRA.POLAR>
0

>  <SCORE.INTRA.POLAR.0>
0

>  <SCORE.INTRA.REPUL>
0

>  <SCORE.INTRA.REPUL.0>
0

>  <SCORE.INTRA.SOLV>
2.20224

>  <SCORE.INTRA.SOLV.lig_0>
-71.9159

>  <SCORE.INTRA.VDW>
2.43404

>  <SCORE.INTRA.VDW.0>
-3.53918

>  <SCORE.INTRA.norm>
0.0637575

>  <SCORE.RESTR>
7.90379

>  <SCORE.RESTR.CAVITY>
7.90379

>  <SCORE.RESTR.norm>
0.232465

>  <SCORE.SYSTEM>
0

>  <SCORE.SYSTEM.CONST>
0

>  <SCORE.SYSTEM.DIHEDRAL>
0

>  <SCORE.SYSTEM.SOLV>
0

>  <SCORE.SYSTEM.norm>
0

>  <SCORE.heavy>
34

>  <SCORE.norm>
0.292765

>  <RMSD>
4.127

$$$$
ligand
 OpenBabel01301917533D
libRbt.so/2013.1/901 2013/11/27
 34 36  0  0  0  0  0  0  0  0999 V2000
   18.7165   27.7515   36.3817 C   0  0  2  0  0  0  0  0  0  0  0  0
   19.1325   28.4752   35.2191 O   0  0  0  0  0  0  0  0  0  0  0  0
   21.4586   32.0518   34.7722 C   0  0  2  0  0  0  0  0  0  0  0  0
   21.8640   33.4640   34.7646 N   0  0  0  0  0  0  0  0  0  0  0  0
   22.9870   33.0085   37.2505 C   0  0  2  0  0  0  0  0  0  0  0  0
   18.4243   26.2646   35.9522 C   0  0  2  0  0  0  0  0  0  0  0  0
   19.6218   25.6432   35.3641 N   0  0  0  0  0  0  0  0  0  0  0  0
   20.1494   31.9250   33.9124 C   0  0  0  0  0  0  0  0  0  0  0  0
   24.3468   32.7444   38.0099 C   0  0  2  0  0  0  0  0  0  0  0  0
   25.2227   31.9799   37.1994 O   0  0  0  0  0  0  0  0  0  0  0  0
   17.2438   26.2201   34.9356 C   0  0  1  0  0  0  0  0  0  0  0  0
   16.9734   24.8626   34.5401 O   0  0  0  0  0  0  0  0  0  0  0  0
   19.7282   30.4135   33.9052 C   0  0  2  0  0  0  0  0  0  0  0  0
   18.4832   30.2185   33.1086 N   0  0  0  0  0  0  0  0  0  0  0  0
   24.0220   31.9709   39.3435 C   0  0  1  0  0  0  0  0  0  0  0  0
   25.2600   31.6598   40.0862 N   0  0  0  0  0  0  0  0  0  0  0  0
   16.0088   26.8792   35.5931 C   0  0  2  0  0  0  0  0  0  0  0  0
   14.9082   26.8377   34.6793 O   0  0  0  0  0  0  0  0  0  0  0  0
   19.4822   29.8990   35.3557 C   0  0  2  0  0  0  0  0  0  0  0  0
   23.0678   32.8440   40.2184 C   0  0  1  0  0  0  0  0  0  0  0  0
   23.7402   34.0558   40.5452 O   0  0  0  0  0  0  0  0  0  0  0  0
   16.3787   28.3719   35.9946 C   0  0  2  0  0  0  0  0  0  0  0  0
   17.5245   28.3935   36.9308 O   0  0  0  0  0  0  0  0  0  0  0  0
   20.7737   30.1014   36.1939 C   0  0  2  0  0  0  0  0  0  0  0  0
   20.5124   29.6527   37.5222 O   0  0  0  0  0  0  0  0  0  0  0  0
   21.7750   33.1560   39.3981 C   0  0  0  0  0  0  0  0  0  0  0  0
   22.0993   33.8155   38.1105 O   0  0  0  0  0  0  0  0  0  0  0  0
   15.1952   29.1213   36.6714 C   0  0  2  0  0  0  0  0  0  0  0  0
   15.4671   30.5271   36.6744 O   0  0  0  0  0  0  0  0  0  0  0  0
   21.1852   31.5925   36.2677 C   0  0  1  0  0  0  0  0  0  0  0  0
   22.4110   31.6788   37.0453 O   0  0  0  0  0  0  0  0  0  0  0  0
   14.9887   28.6861   38.1055 C   0  0  0  0  0  0  0  0  0  0  0  0
   22.6881   32.1506   41.5276 C   0  0  0  0  0  0  0  0  0  0  0  0
   25.3145   30.1879   40.2625 C   0  0  0  0  0  0  0  0  0  0  0  0
  1  2  1  6  0  0  0
  1  6  1  0  0  0  0
  1 23  1  0  0  0  0
  3  4  1  1  0  0  0
  3  8  1  0  0  0  0
  3 30  1  0  0  0  0
  5  9  1  0  0  0  0
  5 27  1  0  0  0  0
  5 31  1  1  0  0  0
  6  7  1  6  0  0  0
  6 11  1  0  0  0  0
  8 13  1  0  0  0  0
  9 10  1  6  0  0  0
  9 15  1  0  0  0  0
 11 12  1  1  0  0  0
 11 17  1  0  0  0  0
 13 14  1  6  0  0  0
 13 19  1  0  0  0  0
 15 16  1  1  0  0  0
 15 20  1  0  0  0  0
 16 34  1  0  0  0  0
 17 18  1  6  0  0  0
 17 22  1  0  0  0  0
 19  2  1  6  0  0  0
 19 24  1  0  0  0  0
 20 21  1  1  0  0  0
 20 26  1  0  0  0  0
 20 33  1  0  0  0  0
 22 23  1  1  0  0  0
 22 28  1  0  0  0  0
 24 25  1  1  0  0  0
 24 30  1  0  0  0  0
 26 27  1  0  0  0  0
 28 29  1  1  0  0  0
 28 32  1  0  0  0  0
 30 31  1  1  0  0  0
M  END
>  <CHROM.1>
-179.36175815,-173.80100291,-122.07780810,-164.56786009,64.77475781,-175.35794040
20.20106370,30.19052452,36.84409270,2.96103956,-0.70258439,-1.24550247

>  <Name>
ligand

>  <RI>
0

>  <Rbt.Current_Directory>
/home/itssahil/PROJECTS/Mol_Feturizer/New_Systems/rnas/4p3s

>  <Rbt.Executable>
rbdock ($Id: //depot/dev/client3/rdock/2013.1/src/exe/rbdock.cxx#4 $)

>  <Rbt.Library>
libRbt.so (2013.1, Build901 2013/11/27)

>  <Rbt.Parameter_File>
/export/apps/rDock/src/rDock_2013.1_src/data/scripts/dock_solv.prm

>  <Rbt.Receptor>
prm/pocket_docking_3.prm

>  <SCORE>
-11.267

>  <SCORE.INTER>
-5.86765

>  <SCORE.INTER.CONST>
1

>  <SCORE.INTER.POLAR>
0

>  <SCORE.INTER.ROT>
6

>  <SCORE.INTER.SOLV>
16.405

>  <SCORE.INTER.VDW>
-16.9801

>  <SCORE.INTER.norm>
-0.172578

>  <SCORE.INTRA>
-5.7152

>  <SCORE.INTRA.DIHEDRAL>
-13.2466

>  <SCORE.INTRA.DIHEDRAL.0>
15.8194

>  <SCORE.INTRA.POLAR>
0

>  <SCORE.INTRA.POLAR.0>
0

>  <SCORE.INTRA.REPUL>
0

>  <SCORE.INTRA.REPUL.0>
0

>  <SCORE.INTRA.SOLV>
-0.828592

>  <SCORE.INTRA.SOLV.lig_0>
-71.9159

>  <SCORE.INTRA.VDW>
1.32237

>  <SCORE.INTRA.VDW.0>
-3.53918

>  <SCORE.INTRA.norm>
-0.168094

>  <SCORE.RESTR>
0.315843

>  <SCORE.RESTR.CAVITY>
0.315843

>  <SCORE.RESTR.norm>
0.0092895

>  <SCORE.SYSTEM>
0

>  <SCORE.SYSTEM.CONST>
0

>  <SCORE.SYSTEM.DIHEDRAL>
0

>  <SCORE.SYSTEM.SOLV>
0

>  <SCORE.SYSTEM.norm>
0

>  <SCORE.heavy>
34

>  <SCORE.norm>
-0.331383

>  <RMSD>
4.170

$$$$
ligand
 OpenBabel01301917533D
libRbt.so/2013.1/901 2013/11/27
 34 36  0  0  0  0  0  0  0  0999 V2000
   18.8051   27.8079   36.1256 C   0  0  2  0  0  0  0  0  0  0  0  0
   19.0813   28.5411   34.9280 O   0  0  0  0  0  0  0  0  0  0  0  0
   21.5044   32.0555   34.5041 C   0  0  2  0  0  0  0  0  0  0  0  0
   21.9381   33.4589   34.4707 N   0  0  0  0  0  0  0  0  0  0  0  0
   22.8727   33.0830   37.0572 C   0  0  2  0  0  0  0  0  0  0  0  0
   18.5104   26.3132   35.7256 C   0  0  2  0  0  0  0  0  0  0  0  0
   19.6579   25.7233   35.0177 N   0  0  0  0  0  0  0  0  0  0  0  0
   20.2529   31.9189   33.5638 C   0  0  0  0  0  0  0  0  0  0  0  0
   24.2052   32.8204   37.8638 C   0  0  2  0  0  0  0  0  0  0  0  0
   25.1028   32.0416   37.0915 O   0  0  0  0  0  0  0  0  0  0  0  0
   17.2342   26.2362   34.8342 C   0  0  1  0  0  0  0  0  0  0  0  0
   16.9612   24.8715   34.4661 O   0  0  0  0  0  0  0  0  0  0  0  0
   19.8023   30.4160   33.5850 C   0  0  2  0  0  0  0  0  0  0  0  0
   18.6093   30.2124   32.7146 N   0  0  0  0  0  0  0  0  0  0  0  0
   23.8324   32.0644   39.1949 C   0  0  1  0  0  0  0  0  0  0  0  0
   25.0434   31.7553   39.9815 N   0  0  0  0  0  0  0  0  0  0  0  0
   16.0554   26.8629   35.6150 C   0  0  2  0  0  0  0  0  0  0  0  0
   14.8691   26.7911   34.8178 O   0  0  0  0  0  0  0  0  0  0  0  0
   19.4502   29.9627   35.0341 C   0  0  2  0  0  0  0  0  0  0  0  0
   22.8551   32.9529   40.0278 C   0  0  1  0  0  0  0  0  0  0  0  0
   23.5234   34.1647   40.3626 O   0  0  0  0  0  0  0  0  0  0  0  0
   16.4243   28.3653   35.9792 C   0  0  2  0  0  0  0  0  0  0  0  0
   17.6585   28.4185   36.7942 O   0  0  0  0  0  0  0  0  0  0  0  0
   20.6870   30.1743   35.9490 C   0  0  2  0  0  0  0  0  0  0  0  0
   20.3290   29.7823   37.2726 O   0  0  0  0  0  0  0  0  0  0  0  0
   21.5917   33.2623   39.1619 C   0  0  0  0  0  0  0  0  0  0  0  0
   21.9620   33.9049   37.8781 O   0  0  0  0  0  0  0  0  0  0  0  0
   15.2963   29.0837   36.7741 C   0  0  2  0  0  0  0  0  0  0  0  0
   15.5742   30.4875   36.8229 O   0  0  0  0  0  0  0  0  0  0  0  0
   21.1230   31.6597   35.9941 C   0  0  1  0  0  0  0  0  0  0  0  0
   22.2960   31.7541   36.8484 O   0  0  0  0  0  0  0  0  0  0  0  0
   15.1920   28.5820   38.1975 C   0  0  0  0  0  0  0  0  0  0  0  0
   22.4285   32.2770   41.3317 C   0  0  0  0  0  0  0  0  0  0  0  0
   25.1324   30.2791   40.0989 C   0  0  0  0  0  0  0  0  0  0  0  0
  1  2  1  6  0  0  0
  1  6  1  0  0  0  0
  1 23  1  0  0  0  0
  3  4  1  1  0  0  0
  3  8  1  0  0  0  0
  3 30  1  0  0  0  0
  5  9  1  0  0  0  0
  5 27  1  0  0  0  0
  5 31  1  1  0  0  0
  6  7  1  6  0  0  0
  6 11  1  0  0  0  0
  8 13  1  0  0  0  0
  9 10  1  6  0  0  0
  9 15  1  0  0  0  0
 11 12  1  1  0  0  0
 11 17  1  0  0  0  0
 13 14  1  6  0  0  0
 13 19  1  0  0  0  0
 15 16  1  1  0  0  0
 15 20  1  0  0  0  0
 16 34  1  0  0  0  0
 17 18  1  6  0  0  0
 17 22  1  0  0  0  0
 19  2  1  6  0  0  0
 19 24  1  0  0  0  0
 20 21  1  1  0  0  0
 20 26  1  0  0  0  0
 20 33  1  0  0  0  0
 22 23  1  1  0  0  0
 22 28  1  0  0  0  0
 24 25  1  1  0  0  0
 24 30  1  0  0  0  0
 26 27  1  0  0  0  0
 28 29  1  1  0  0  0
 28 32  1  0  0  0  0
 30 31  1  1  0  0  0
M  END
>  <CHROM.1>
-177.29270732,175.10478953,-118.35688832,-168.14624103,65.62700228,-173.27384327
20.16164790,30.23411304,36.67748802,2.80018052,-0.67507817,-1.51534943

>  <Name>
ligand

>  <RI>
0

>  <Rbt.Current_Directory>
/home/itssahil/PROJECTS/Mol_Feturizer/New_Systems/rnas/4p3s

>  <Rbt.Executable>
rbdock ($Id: //depot/dev/client3/rdock/2013.1/src/exe/rbdock.cxx#4 $)

>  <Rbt.Library>
libRbt.so (2013.1, Build901 2013/11/27)

>  <Rbt.Parameter_File>
/export/apps/rDock/src/rDock_2013.1_src/data/scripts/dock_solv.prm

>  <Rbt.Receptor>
prm/pocket_docking_6.prm

>  <SCORE>
-12.5473

>  <SCORE.INTER>
-6.86433

>  <SCORE.INTER.CONST>
1

>  <SCORE.INTER.POLAR>
0

>  <SCORE.INTER.ROT>
6

>  <SCORE.INTER.SOLV>
16.1227

>  <SCORE.INTER.VDW>
-17.5504

>  <SCORE.INTER.norm>
-0.201892

>  <SCORE.INTRA>
-5.68575

>  <SCORE.INTRA.DIHEDRAL>
-13.4584

>  <SCORE.INTRA.DIHEDRAL.0>
15.8194

>  <SCORE.INTRA.POLAR>
0

>  <SCORE.INTRA.POLAR.0>
0

>  <SCORE.INTRA.REPUL>
0

>  <SCORE.INTRA.REPUL.0>
0

>  <SCORE.INTRA.SOLV>
-1.062

>  <SCORE.INTRA.SOLV.lig_0>
-71.9159

>  <SCORE.INTRA.VDW>
1.57445

>  <SCORE.INTRA.VDW.0>
-3.53918

>  <SCORE.INTRA.norm>
-0.167228

>  <SCORE.RESTR>
0.00278289

>  <SCORE.RESTR.CAVITY>
0.00278289

>  <SCORE.RESTR.norm>
8.18498e-05

>  <SCORE.SYSTEM>
0

>  <SCORE.SYSTEM.CONST>
0

>  <SCORE.SYSTEM.DIHEDRAL>
0

>  <SCORE.SYSTEM.SOLV>
0

>  <SCORE.SYSTEM.norm>
0

>  <SCORE.heavy>
34

>  <SCORE.norm>
-0.369038

>  <RMSD>
4.170

$$$$
ligand
 OpenBabel01301917533D
libRbt.so/2013.1/901 2013/11/27
 34 36  0  0  0  0  0  0  0  0999 V2000
   18.6776   27.6526   36.2477 C   0  0  2  0  0  0  0  0  0  0  0  0
   18.8830   28.5661   35.1653 O   0  0  0  0  0  0  0  0  0  0  0  0
   21.0073   32.2897   35.0095 C   0  0  2  0  0  0  0  0  0  0  0  0
   21.3548   33.7086   35.1664 N   0  0  0  0  0  0  0  0  0  0  0  0
   22.8071   32.9690   37.3332 C   0  0  2  0  0  0  0  0  0  0  0  0
   18.4726   26.2141   35.6400 C   0  0  2  0  0  0  0  0  0  0  0  0
   19.6422   25.8091   34.8439 N   0  0  0  0  0  0  0  0  0  0  0  0
   19.6186   32.2150   34.2781 C   0  0  0  0  0  0  0  0  0  0  0  0
   24.1876   32.6663   38.0389 C   0  0  2  0  0  0  0  0  0  0  0  0
   25.0316   31.9275   37.1726 O   0  0  0  0  0  0  0  0  0  0  0  0
   17.1874   26.1801   34.7590 C   0  0  1  0  0  0  0  0  0  0  0  0
   16.9963   24.8668   34.2013 O   0  0  0  0  0  0  0  0  0  0  0  0
   19.2576   30.6991   34.0938 C   0  0  2  0  0  0  0  0  0  0  0  0
   17.9421   30.5515   33.4081 N   0  0  0  0  0  0  0  0  0  0  0  0
   23.8982   31.8442   39.3514 C   0  0  1  0  0  0  0  0  0  0  0  0
   25.1560   31.4961   40.0424 N   0  0  0  0  0  0  0  0  0  0  0  0
   15.9855   26.6088   35.6329 C   0  0  2  0  0  0  0  0  0  0  0  0
   14.7914   26.5726   34.8450 O   0  0  0  0  0  0  0  0  0  0  0  0
   19.1903   29.9732   35.4714 C   0  0  2  0  0  0  0  0  0  0  0  0
   22.9788   32.6896   40.2886 C   0  0  1  0  0  0  0  0  0  0  0  0
   23.6710   33.8831   40.6404 O   0  0  0  0  0  0  0  0  0  0  0  0
   16.2634   28.0652   36.2056 C   0  0  2  0  0  0  0  0  0  0  0  0
   17.5068   28.0837   37.0080 O   0  0  0  0  0  0  0  0  0  0  0  0
   20.5563   30.1247   36.1944 C   0  0  2  0  0  0  0  0  0  0  0  0
   20.4579   29.4802   37.4628 O   0  0  0  0  0  0  0  0  0  0  0  0
   21.6637   33.0421   39.5219 C   0  0  0  0  0  0  0  0  0  0  0  0
   21.9532   33.7484   38.2510 O   0  0  0  0  0  0  0  0  0  0  0  0
   15.1066   28.5859   37.1062 C   0  0  2  0  0  0  0  0  0  0  0  0
   13.8869   28.5827   36.3563 O   0  0  0  0  0  0  0  0  0  0  0  0
   20.9155   31.6106   36.4423 C   0  0  1  0  0  0  0  0  0  0  0  0
   22.2141   31.6523   37.0953 O   0  0  0  0  0  0  0  0  0  0  0  0
   15.3502   29.9987   37.5891 C   0  0  0  0  0  0  0  0  0  0  0  0
   22.6343   31.9489   41.5815 C   0  0  0  0  0  0  0  0  0  0  0  0
   25.2828   30.0182   40.0169 C   0  0  0  0  0  0  0  0  0  0  0  0
  1  2  1  6  0  0  0
  1  6  1  0  0  0  0
  1 23  1  0  0  0  0
  3  4  1  1  0  0  0
  3  8  1  0  0  0  0
  3 30  1  0  0  0  0
  5  9  1  0  0  0  0
  5 27  1  0  0  0  0
  5 31  1  1  0  0  0
  6  7  1  6  0  0  0
  6 11  1  0  0  0  0
  8 13  1  0  0  0  0
  9 10  1  6  0  0  0
  9 15  1  0  0  0  0
 11 12  1  1  0  0  0
 11 17  1  0  0  0  0
 13 14  1  1  0  0  0
 13 19  1  0  0  0  0
 15 16  1  1  0  0  0
 15 20  1  0  0  0  0
 16 34  1  0  0  0  0
 17 18  1  6  0  0  0
 17 22  1  0  0  0  0
 19  2  1  6  0  0  0
 19 24  1  0  0  0  0
 20 21  1  1  0  0  0
 20 26  1  0  0  0  0
 20 33  1  0  0  0  0
 22 23  1  1  0  0  0
 22 28  1  0  0  0  0
 24 25  1  1  0  0  0
 24 30  1  0  0  0  0
 26 27  1  0  0  0  0
 28 29  1  6  0  0  0
 28 32  1  0  0  0  0
 30 31  1  6  0  0  0
M  END
>  <CHROM.1>
-175.96662464,-176.32985129,-115.44541253,-57.61507749,59.88108353,-179.84043580
20.00428068,30.11694729,36.85733572,-2.85226778,-0.66985347,-0.51093891

>  <Name>
ligand

>  <RI>
0

>  <Rbt.Current_Directory>
/home/itssahil/PROJECTS/Mol_Feturizer/New_Systems/rnas/4p3s

>  <Rbt.Executable>
rbdock ($Id: //depot/dev/client3/rdock/2013.1/src/exe/rbdock.cxx#4 $)

>  <Rbt.Library>
libRbt.so (2013.1, Build901 2013/11/27)

>  <Rbt.Parameter_File>
/export/apps/rDock/src/rDock_2013.1_src/data/scripts/dock_solv.prm

>  <Rbt.Receptor>
prm/pocket_docking_4.prm

>  <SCORE>
-14.0771

>  <SCORE.INTER>
-7.78145

>  <SCORE.INTER.CONST>
1

>  <SCORE.INTER.POLAR>
0

>  <SCORE.INTER.ROT>
6

>  <SCORE.INTER.SOLV>
16.2527

>  <SCORE.INTER.VDW>
-18.2052

>  <SCORE.INTER.norm>
-0.228866

>  <SCORE.INTRA>
-6.29565

>  <SCORE.INTRA.DIHEDRAL>
-14.3468

>  <SCORE.INTRA.DIHEDRAL.0>
15.8194

>  <SCORE.INTRA.POLAR>
0

>  <SCORE.INTRA.POLAR.0>
0

>  <SCORE.INTRA.REPUL>
0

>  <SCORE.INTRA.REPUL.0>
0

>  <SCORE.INTRA.SOLV>
-0.332348

>  <SCORE.INTRA.SOLV.lig_0>
-71.9159

>  <SCORE.INTRA.VDW>
1.0439

>  <SCORE.INTRA.VDW.0>
-3.53918

>  <SCORE.INTRA.norm>
-0.185166

>  <SCORE.RESTR>
0

>  <SCORE.RESTR.CAVITY>
0

>  <SCORE.RESTR.norm>
0

>  <SCORE.SYSTEM>
0

>  <SCORE.SYSTEM.CONST>
0

>  <SCORE.SYSTEM.DIHEDRAL>
0

>  <SCORE.SYSTEM.SOLV>
0

>  <SCORE.SYSTEM.norm>
0

>  <SCORE.heavy>
34

>  <SCORE.norm>
-0.414032

>  <RMSD>
4.210

$$$$
ligand
 OpenBabel01301917533D
libRbt.so/2013.1/901 2013/11/27
 34 36  0  0  0  0  0  0  0  0999 V2000
   17.3490   30.0441   38.4710 C   0  0  2  0  0  0  0  0  0  0  0  0
   17.9044   28.7587   38.1751 O   0  0  0  0  0  0  0  0  0  0  0  0
   21.9496   27.3381   38.0332 C   0  0  2  0  0  0  0  0  0  0  0  0
   23.3340   27.1018   37.6016 N   0  0  0  0  0  0  0  0  0  0  0  0
   24.0435   29.4375   39.2710 C   0  0  2  0  0  0  0  0  0  0  0  0
   16.0352   29.8261   39.3120 C   0  0  2  0  0  0  0  0  0  0  0  0
   16.3238   29.0949   40.5562 N   0  0  0  0  0  0  0  0  0  0  0  0
   21.0039   26.9567   36.8377 C   0  0  0  0  0  0  0  0  0  0  0  0
   24.6568   29.8493   40.6673 C   0  0  2  0  0  0  0  0  0  0  0  0
   24.5314   28.7839   41.5935 O   0  0  0  0  0  0  0  0  0  0  0  0
   14.9784   29.0513   38.4684 C   0  0  1  0  0  0  0  0  0  0  0  0
   13.7758   28.8497   39.2335 O   0  0  0  0  0  0  0  0  0  0  0  0
   19.5248   27.1910   37.3062 C   0  0  2  0  0  0  0  0  0  0  0  0
   18.5676   26.8534   36.2143 N   0  0  0  0  0  0  0  0  0  0  0  0
   23.8833   31.1194   41.1879 C   0  0  1  0  0  0  0  0  0  0  0  0
   24.3864   31.5356   42.5125 N   0  0  0  0  0  0  0  0  0  0  0  0
   14.7035   29.8535   37.1749 C   0  0  2  0  0  0  0  0  0  0  0  0
   13.7251   29.1644   36.3903 O   0  0  0  0  0  0  0  0  0  0  0  0
   19.3044   28.6757   37.7263 C   0  0  2  0  0  0  0  0  0  0  0  0
   24.0522   32.2770   40.1537 C   0  0  1  0  0  0  0  0  0  0  0  0
   25.4368   32.5939   40.0554 O   0  0  0  0  0  0  0  0  0  0  0  0
   16.0697   30.0293   36.3821 C   0  0  2  0  0  0  0  0  0  0  0  0
   17.0706   30.7342   37.2137 O   0  0  0  0  0  0  0  0  0  0  0  0
   20.3000   29.0371   38.8618 C   0  0  2  0  0  0  0  0  0  0  0  0
   20.0993   30.4067   39.2052 O   0  0  0  0  0  0  0  0  0  0  0  0
   23.5151   31.7975   38.7669 C   0  0  0  0  0  0  0  0  0  0  0  0
   24.1978   30.5585   38.3232 O   0  0  0  0  0  0  0  0  0  0  0  0
   15.8969   30.8320   35.0607 C   0  0  2  0  0  0  0  0  0  0  0  0
   17.1637   30.9331   34.4010 O   0  0  0  0  0  0  0  0  0  0  0  0
   21.7725   28.8702   38.4120 C   0  0  1  0  0  0  0  0  0  0  0  0
   22.6245   29.2036   39.5424 O   0  0  0  0  0  0  0  0  0  0  0  0
   15.3893   32.2357   35.3071 C   0  0  0  0  0  0  0  0  0  0  0  0
   23.3101   33.5448   40.5791 C   0  0  0  0  0  0  0  0  0  0  0  0
   23.4759   30.9625   43.5339 C   0  0  0  0  0  0  0  0  0  0  0  0
  1  2  1  6  0  0  0
  1  6  1  0  0  0  0
  1 23  1  0  0  0  0
  3  4  1  6  0  0  0
  3  8  1  0  0  0  0
  3 30  1  0  0  0  0
  5  9  1  0  0  0  0
  5 27  1  0  0  0  0
  5 31  1  1  0  0  0
  6  7  1  1  0  0  0
  6 11  1  0  0  0  0
  8 13  1  0  0  0  0
  9 10  1  1  0  0  0
  9 15  1  0  0  0  0
 11 12  1  1  0  0  0
 11 17  1  0  0  0  0
 13 14  1  6  0  0  0
 13 19  1  0  0  0  0
 15 16  1  1  0  0  0
 15 20  1  0  0  0  0
 16 34  1  0  0  0  0
 17 18  1  6  0  0  0
 17 22  1  0  0  0  0
 19  2  1  1  0  0  0
 19 24  1  0  0  0  0
 20 21  1  6  0  0  0
 20 26  1  0  0  0  0
 20 33  1  0  0  0  0
 22 23  1  1  0  0  0
 22 28  1  0  0  0  0
 24 25  1  6  0  0  0
 24 30  1  0  0  0  0
 26 27  1  0  0  0  0
 28 29  1  1  0  0  0
 28 32  1  0  0  0  0
 30 31  1  1  0  0  0
M  END
>  <CHROM.1>
-163.50170748,-172.32309938,-97.12799018,-179.34264264,79.26885205,176.90692506
20.00354552,29.83462012,38.60562273,2.81785798,0.24472142,-2.47801912

>  <Name>
ligand

>  <RI>
0

>  <Rbt.Current_Directory>
/home/itssahil/PROJECTS/Mol_Feturizer/New_Systems/rnas/4p3s

>  <Rbt.Executable>
rbdock ($Id: //depot/dev/client3/rdock/2013.1/src/exe/rbdock.cxx#4 $)

>  <Rbt.Library>
libRbt.so (2013.1, Build901 2013/11/27)

>  <Rbt.Parameter_File>
/export/apps/rDock/src/rDock_2013.1_src/data/scripts/dock_solv.prm

>  <Rbt.Receptor>
prm/pocket_docking_5.prm

>  <SCORE>
-10.9722

>  <SCORE.INTER>
-5.46631

>  <SCORE.INTER.CONST>
1

>  <SCORE.INTER.POLAR>
0

>  <SCORE.INTER.ROT>
6

>  <SCORE.INTER.SOLV>
14.7355

>  <SCORE.INTER.VDW>
-16.1561

>  <SCORE.INTER.norm>
-0.160774

>  <SCORE.INTRA>
-5.50586

>  <SCORE.INTRA.DIHEDRAL>
-11.6359

>  <SCORE.INTRA.DIHEDRAL.0>
15.8194

>  <SCORE.INTRA.POLAR>
0

>  <SCORE.INTRA.POLAR.0>
0

>  <SCORE.INTRA.REPUL>
0

>  <SCORE.INTRA.REPUL.0>
0

>  <SCORE.INTRA.SOLV>
-0.825929

>  <SCORE.INTRA.SOLV.lig_0>
-71.9159

>  <SCORE.INTRA.VDW>
0.725025

>  <SCORE.INTRA.VDW.0>
-3.53918

>  <SCORE.INTRA.norm>
-0.161937

>  <SCORE.RESTR>
0

>  <SCORE.RESTR.CAVITY>
0

>  <SCORE.RESTR.norm>
0

>  <SCORE.SYSTEM>
0

>  <SCORE.SYSTEM.CONST>
0

>  <SCORE.SYSTEM.DIHEDRAL>
0

>  <SCORE.SYSTEM.SOLV>
0

>  <SCORE.SYSTEM.norm>
0

>  <SCORE.heavy>
34

>  <SCORE.norm>
-0.322711

>  <RMSD>
4.228

$$$$
ligand
 OpenBabel01301917533D
libRbt.so/2013.1/901 2013/11/27
 34 36  0  0  0  0  0  0  0  0999 V2000
   19.4685   24.6536   34.4294 C   0  0  2  0  0  0  0  0  0  0  0  0
   19.6562   25.9761   33.9156 O   0  0  0  0  0  0  0  0  0  0  0  0
   20.6877   29.6127   35.9436 C   0  0  2  0  0  0  0  0  0  0  0  0
   20.5962   30.8413   36.7441 N   0  0  0  0  0  0  0  0  0  0  0  0
   22.8067   27.9165   37.4580 C   0  0  2  0  0  0  0  0  0  0  0  0
   19.8314   23.6306   33.2881 C   0  0  2  0  0  0  0  0  0  0  0  0
   21.2219   23.8135   32.8419 N   0  0  0  0  0  0  0  0  0  0  0  0
   19.5983   29.6952   34.8141 C   0  0  0  0  0  0  0  0  0  0  0  0
   23.6609   27.8685   38.7859 C   0  0  2  0  0  0  0  0  0  0  0  0
   23.1746   26.8539   39.6476 O   0  0  0  0  0  0  0  0  0  0  0  0
   18.8562   23.7992   32.0841 C   0  0  1  0  0  0  0  0  0  0  0  0
   19.1845   22.8660   31.0383 O   0  0  0  0  0  0  0  0  0  0  0  0
   19.7098   28.3915   33.9480 C   0  0  2  0  0  0  0  0  0  0  0  0
   18.6964   28.3985   32.8546 N   0  0  0  0  0  0  0  0  0  0  0  0
   23.5583   29.2758   39.4867 C   0  0  1  0  0  0  0  0  0  0  0  0
   24.3089   29.2862   40.7585 N   0  0  0  0  0  0  0  0  0  0  0  0
   17.4106   23.5972   32.5953 C   0  0  2  0  0  0  0  0  0  0  0  0
   16.4986   23.7360   31.5012 O   0  0  0  0  0  0  0  0  0  0  0  0
   19.4930   27.1219   34.8258 C   0  0  2  0  0  0  0  0  0  0  0  0
   24.1135   30.3678   38.5186 C   0  0  1  0  0  0  0  0  0  0  0  0
   25.4849   30.0849   38.2605 O   0  0  0  0  0  0  0  0  0  0  0  0
   17.1186   24.6628   33.7378 C   0  0  2  0  0  0  0  0  0  0  0  0
   18.0780   24.5095   34.8541 O   0  0  0  0  0  0  0  0  0  0  0  0
   20.5428   27.1081   35.9699 C   0  0  2  0  0  0  0  0  0  0  0  0
   20.3030   25.9556   36.7749 O   0  0  0  0  0  0  0  0  0  0  0  0
   23.2995   30.3218   37.1856 C   0  0  0  0  0  0  0  0  0  0  0  0
   23.3409   28.9716   36.5747 O   0  0  0  0  0  0  0  0  0  0  0  0
   15.6824   24.5366   34.3224 C   0  0  2  0  0  0  0  0  0  0  0  0
   15.6421   25.1559   35.6127 O   0  0  0  0  0  0  0  0  0  0  0  0
   20.4218   28.3565   36.8783 C   0  0  1  0  0  0  0  0  0  0  0  0
   21.4556   28.2684   37.8972 O   0  0  0  0  0  0  0  0  0  0  0  0
   15.2573   23.0941   34.4871 C   0  0  0  0  0  0  0  0  0  0  0  0
   24.0295   31.7710   39.1210 C   0  0  0  0  0  0  0  0  0  0  0  0
   23.4239   29.8774   41.7920 C   0  0  0  0  0  0  0  0  0  0  0  0
  1  2  1  6  0  0  0
  1  6  1  0  0  0  0
  1 23  1  0  0  0  0
  3  4  1  1  0  0  0
  3  8  1  0  0  0  0
  3 30  1  0  0  0  0
  5  9  1  0  0  0  0
  5 27  1  0  0  0  0
  5 31  1  1  0  0  0
  6  7  1  6  0  0  0
  6 11  1  0  0  0  0
  8 13  1  0  0  0  0
  9 10  1  1  0  0  0
  9 15  1  0  0  0  0
 11 12  1  6  0  0  0
 11 17  1  0  0  0  0
 13 14  1  6  0  0  0
 13 19  1  0  0  0  0
 15 16  1  1  0  0  0
 15 20  1  0  0  0  0
 16 34  1  0  0  0  0
 17 18  1  6  0  0  0
 17 22  1  0  0  0  0
 19  2  1  6  0  0  0
 19 24  1  0  0  0  0
 20 21  1  6  0  0  0
 20 26  1  0  0  0  0
 20 33  1  0  0  0  0
 22 23  1  1  0  0  0
 22 28  1  0  0  0  0
 24 25  1  1  0  0  0
 24 30  1  0  0  0  0
 26 27  1  0  0  0  0
 28 29  1  1  0  0  0
 28 32  1  0  0  0  0
 30 31  1  1  0  0  0
M  END
>  <CHROM.1>
-174.85808673,-177.92976528,-132.12610804,159.48788332,-69.06410065,-178.53934635
20.48335778,27.04698307,35.86372594,-2.78617366,-0.88062332,-0.31208668

>  <Name>
ligand

>  <RI>
0

>  <Rbt.Current_Directory>
/home/itssahil/PROJECTS/Mol_Feturizer/New_Systems/rnas/4p3s

>  <Rbt.Executable>
rbdock ($Id: //depot/dev/client3/rdock/2013.1/src/exe/rbdock.cxx#4 $)

>  <Rbt.Library>
libRbt.so (2013.1, Build901 2013/11/27)

>  <Rbt.Parameter_File>
/export/apps/rDock/src/rDock_2013.1_src/data/scripts/dock_solv.prm

>  <Rbt.Receptor>
prm/blind_docking_80.prm

>  <SCORE>
1.03121

>  <SCORE.INTER>
-0.866312

>  <SCORE.INTER.CONST>
1

>  <SCORE.INTER.POLAR>
0

>  <SCORE.INTER.ROT>
6

>  <SCORE.INTER.SOLV>
23.8663

>  <SCORE.INTER.VDW>
-16.133

>  <SCORE.INTER.norm>
-0.0254798

>  <SCORE.INTRA>
-1.73487

>  <SCORE.INTRA.DIHEDRAL>
-12.6902

>  <SCORE.INTRA.DIHEDRAL.0>
15.8194

>  <SCORE.INTRA.POLAR>
0

>  <SCORE.INTRA.POLAR.0>
0

>  <SCORE.INTRA.REPUL>
0

>  <SCORE.INTRA.REPUL.0>
0

>  <SCORE.INTRA.SOLV>
0.623083

>  <SCORE.INTRA.SOLV.lig_0>
-71.9159

>  <SCORE.INTRA.VDW>
4.2987

>  <SCORE.INTRA.VDW.0>
-3.53918

>  <SCORE.INTRA.norm>
-0.0510255

>  <SCORE.RESTR>
3.63239

>  <SCORE.RESTR.CAVITY>
3.63239

>  <SCORE.RESTR.norm>
0.106835

>  <SCORE.SYSTEM>
0

>  <SCORE.SYSTEM.CONST>
0

>  <SCORE.SYSTEM.DIHEDRAL>
0

>  <SCORE.SYSTEM.SOLV>
0

>  <SCORE.SYSTEM.norm>
0

>  <SCORE.heavy>
34

>  <SCORE.norm>
0.0303298

>  <RMSD>
4.366

$$$$
ligand
 OpenBabel01301917533D
libRbt.so/2013.1/901 2013/11/27
 34 36  0  0  0  0  0  0  0  0999 V2000
   18.4679   28.2067   35.2859 C   0  0  2  0  0  0  0  0  0  0  0  0
   18.1474   29.2679   34.3807 O   0  0  0  0  0  0  0  0  0  0  0  0
   21.5447   31.7736   35.1438 C   0  0  2  0  0  0  0  0  0  0  0  0
   22.4641   32.9195   35.1465 N   0  0  0  0  0  0  0  0  0  0  0  0
   21.2264   33.7024   37.5993 C   0  0  2  0  0  0  0  0  0  0  0  0
   18.0503   26.8464   34.6105 C   0  0  2  0  0  0  0  0  0  0  0  0
   18.7536   26.6578   33.3315 N   0  0  0  0  0  0  0  0  0  0  0  0
   21.2253   31.4198   33.6464 C   0  0  0  0  0  0  0  0  0  0  0  0
   21.5681   33.6195   39.1393 C   0  0  2  0  0  0  0  0  0  0  0  0
   22.4294   32.5232   39.3941 O   0  0  0  0  0  0  0  0  0  0  0  0
   16.5087   26.8087   34.3844 C   0  0  1  0  0  0  0  0  0  0  0  0
   16.1226   25.5669   33.7670 O   0  0  0  0  0  0  0  0  0  0  0  0
   20.2586   30.1837   33.6443 C   0  0  2  0  0  0  0  0  0  0  0  0
   19.9065   29.7942   32.2490 N   0  0  0  0  0  0  0  0  0  0  0  0
   20.2179   33.4492   39.9333 C   0  0  1  0  0  0  0  0  0  0  0  0
   20.4716   33.3285   41.3831 N   0  0  0  0  0  0  0  0  0  0  0  0
   15.8105   27.0077   35.7501 C   0  0  2  0  0  0  0  0  0  0  0  0
   14.3920   26.9641   35.5665 O   0  0  0  0  0  0  0  0  0  0  0  0
   18.9469   30.5037   34.4229 C   0  0  2  0  0  0  0  0  0  0  0  0
   19.2985   34.6774   39.6425 C   0  0  1  0  0  0  0  0  0  0  0  0
   19.9565   35.8517   40.1067 O   0  0  0  0  0  0  0  0  0  0  0  0
   16.2774   28.3967   36.3655 C   0  0  2  0  0  0  0  0  0  0  0  0
   17.7469   28.4256   36.5376 O   0  0  0  0  0  0  0  0  0  0  0  0
   19.3047   30.9138   35.8773 C   0  0  2  0  0  0  0  0  0  0  0  0
   18.0920   31.2310   36.5572 O   0  0  0  0  0  0  0  0  0  0  0  0
   19.0582   34.7746   38.1016 C   0  0  0  0  0  0  0  0  0  0  0  0
   20.3394   34.8577   37.3601 O   0  0  0  0  0  0  0  0  0  0  0  0
   15.6291   28.6873   37.7496 C   0  0  2  0  0  0  0  0  0  0  0  0
   14.2185   28.8664   37.5816 O   0  0  0  0  0  0  0  0  0  0  0  0
   20.2136   32.1671   35.9156 C   0  0  1  0  0  0  0  0  0  0  0  0
   20.5148   32.4569   37.3085 O   0  0  0  0  0  0  0  0  0  0  0  0
   16.1830   29.9420   38.3878 C   0  0  0  0  0  0  0  0  0  0  0  0
   17.9541   34.5767   40.3645 C   0  0  0  0  0  0  0  0  0  0  0  0
   20.1915   31.9234   41.7678 C   0  0  0  0  0  0  0  0  0  0  0  0
  1  2  1  6  0  0  0
  1  6  1  0  0  0  0
  1 23  1  0  0  0  0
  3  4  1  6  0  0  0
  3  8  1  0  0  0  0
  3 30  1  0  0  0  0
  5  9  1  0  0  0  0
  5 27  1  0  0  0  0
  5 31  1  1  0  0  0
  6  7  1  6  0  0  0
  6 11  1  0  0  0  0
  8 13  1  0  0  0  0
  9 10  1  6  0  0  0
  9 15  1  0  0  0  0
 11 12  1  1  0  0  0
 11 17  1  0  0  0  0
 13 14  1  6  0  0  0
 13 19  1  0  0  0  0
 15 16  1  1  0  0  0
 15 20  1  0  0  0  0
 16 34  1  0  0  0  0
 17 18  1  6  0  0  0
 17 22  1  0  0  0  0
 19  2  1  1  0  0  0
 19 24  1  0  0  0  0
 20 21  1  1  0  0  0
 20 26  1  0  0  0  0
 20 33  1  0  0  0  0
 22 23  1  1  0  0  0
 22 28  1  0  0  0  0
 24 25  1  1  0  0  0
 24 30  1  0  0  0  0
 26 27  1  0  0  0  0
 28 29  1  6  0  0  0
 28 32  1  0  0  0  0
 30 31  1  1  0  0  0
M  END
>  <CHROM.1>
-151.45983284,79.39436324,-108.85988048,-66.14445895,72.04652032,-172.46169732
18.83343087,30.83446009,36.75012892,-2.12886008,0.63618173,0.94614202

>  <Name>
ligand

>  <RI>
0

>  <Rbt.Current_Directory>
/home/itssahil/PROJECTS/Mol_Feturizer/New_Systems/rnas/4p3s

>  <Rbt.Executable>
rbdock ($Id: //depot/dev/client3/rdock/2013.1/src/exe/rbdock.cxx#4 $)

>  <Rbt.Library>
libRbt.so (2013.1, Build901 2013/11/27)

>  <Rbt.Parameter_File>
/export/apps/rDock/src/rDock_2013.1_src/data/scripts/dock_solv.prm

>  <Rbt.Receptor>
prm/pocket_docking_5.prm

>  <SCORE>
-5.71802

>  <SCORE.INTER>
-3.01359

>  <SCORE.INTER.CONST>
1

>  <SCORE.INTER.POLAR>
0

>  <SCORE.INTER.ROT>
6

>  <SCORE.INTER.SOLV>
13.2837

>  <SCORE.INTER.VDW>
-14.037

>  <SCORE.INTER.norm>
-0.0886349

>  <SCORE.INTRA>
-2.70443

>  <SCORE.INTRA.DIHEDRAL>
-8.49754

>  <SCORE.INTRA.DIHEDRAL.0>
15.8194

>  <SCORE.INTRA.POLAR>
0

>  <SCORE.INTRA.POLAR.0>
0

>  <SCORE.INTRA.REPUL>
0

>  <SCORE.INTRA.REPUL.0>
0

>  <SCORE.INTRA.SOLV>
1.52952

>  <SCORE.INTRA.SOLV.lig_0>
-71.9159

>  <SCORE.INTRA.VDW>
0.779573

>  <SCORE.INTRA.VDW.0>
-3.53918

>  <SCORE.INTRA.norm>
-0.0795422

>  <SCORE.RESTR>
0

>  <SCORE.RESTR.CAVITY>
0

>  <SCORE.RESTR.norm>
0

>  <SCORE.SYSTEM>
0

>  <SCORE.SYSTEM.CONST>
0

>  <SCORE.SYSTEM.DIHEDRAL>
0

>  <SCORE.SYSTEM.SOLV>
0

>  <SCORE.SYSTEM.norm>
0

>  <SCORE.heavy>
34

>  <SCORE.norm>
-0.168177

>  <RMSD>
4.380

$$$$
ligand
 OpenBabel01301917533D
libRbt.so/2013.1/901 2013/11/27
 34 36  0  0  0  0  0  0  0  0999 V2000
   19.2170   23.8753   34.0236 C   0  0  2  0  0  0  0  0  0  0  0  0
   19.0420   25.2520   33.6737 O   0  0  0  0  0  0  0  0  0  0  0  0
   18.0196   29.0254   35.4396 C   0  0  2  0  0  0  0  0  0  0  0  0
   17.4633   30.0406   36.3443 N   0  0  0  0  0  0  0  0  0  0  0  0
   21.0364   29.6245   35.5288 C   0  0  2  0  0  0  0  0  0  0  0  0
   19.8823   23.1414   32.7991 C   0  0  2  0  0  0  0  0  0  0  0  0
   21.1781   23.7522   32.4619 N   0  0  0  0  0  0  0  0  0  0  0  0
   16.8393   28.0952   34.9804 C   0  0  0  0  0  0  0  0  0  0  0  0
   22.3392   30.1502   36.2511 C   0  0  2  0  0  0  0  0  0  0  0  0
   23.0474   29.0708   36.8359 O   0  0  0  0  0  0  0  0  0  0  0  0
   18.9322   23.1852   31.5644 C   0  0  1  0  0  0  0  0  0  0  0  0
   19.5366   22.5155   30.4425 O   0  0  0  0  0  0  0  0  0  0  0  0
   17.4311   27.0233   33.9990 C   0  0  2  0  0  0  0  0  0  0  0  0
   16.3628   26.0976   33.5254 N   0  0  0  0  0  0  0  0  0  0  0  0
   21.9037   31.1819   37.3593 C   0  0  1  0  0  0  0  0  0  0  0  0
   23.0780   31.6861   38.0995 N   0  0  0  0  0  0  0  0  0  0  0  0
   17.5870   22.5329   31.9607 C   0  0  2  0  0  0  0  0  0  0  0  0
   16.7029   22.5519   30.8355 O   0  0  0  0  0  0  0  0  0  0  0  0
   18.5466   26.1879   34.6969 C   0  0  2  0  0  0  0  0  0  0  0  0
   21.1394   32.3633   36.6822 C   0  0  1  0  0  0  0  0  0  0  0  0
   22.0260   33.0125   35.7768 O   0  0  0  0  0  0  0  0  0  0  0  0
   16.9779   23.3268   33.1955 C   0  0  2  0  0  0  0  0  0  0  0  0
   17.9109   23.3043   34.3440 O   0  0  0  0  0  0  0  0  0  0  0  0
   19.6627   27.1450   35.1966 C   0  0  2  0  0  0  0  0  0  0  0  0
   20.6534   26.3605   35.8575 O   0  0  0  0  0  0  0  0  0  0  0  0
   19.9100   31.7905   35.9063 C   0  0  0  0  0  0  0  0  0  0  0  0
   20.3252   30.7652   34.9192 O   0  0  0  0  0  0  0  0  0  0  0  0
   15.6185   22.7403   33.6735 C   0  0  2  0  0  0  0  0  0  0  0  0
   15.0194   23.6416   34.6110 O   0  0  0  0  0  0  0  0  0  0  0  0
   19.1212   28.1814   36.2120 C   0  0  1  0  0  0  0  0  0  0  0  0
   20.2255   29.0442   36.6002 O   0  0  0  0  0  0  0  0  0  0  0  0
   15.7831   21.4013   34.3581 C   0  0  0  0  0  0  0  0  0  0  0  0
   20.6638   33.4021   37.6989 C   0  0  0  0  0  0  0  0  0  0  0  0
   22.9457   31.2319   39.5055 C   0  0  0  0  0  0  0  0  0  0  0  0
  1  2  1  6  0  0  0
  1  6  1  0  0  0  0
  1 23  1  0  0  0  0
  3  4  1  1  0  0  0
  3  8  1  0  0  0  0
  3 30  1  0  0  0  0
  5  9  1  0  0  0  0
  5 27  1  0  0  0  0
  5 31  1  1  0  0  0
  6  7  1  6  0  0  0
  6 11  1  0  0  0  0
  8 13  1  0  0  0  0
  9 10  1  1  0  0  0
  9 15  1  0  0  0  0
 11 12  1  6  0  0  0
 11 17  1  0  0  0  0
 13 14  1  1  0  0  0
 13 19  1  0  0  0  0
 15 16  1  6  0  0  0
 15 20  1  0  0  0  0
 16 34  1  0  0  0  0
 17 18  1  6  0  0  0
 17 22  1  0  0  0  0
 19  2  1  6  0  0  0
 19 24  1  0  0  0  0
 20 21  1  6  0  0  0
 20 26  1  0  0  0  0
 20 33  1  0  0  0  0
 22 23  1  1  0  0  0
 22 28  1  0  0  0  0
 24 25  1  1  0  0  0
 24 30  1  0  0  0  0
 26 27  1  0  0  0  0
 28 29  1  1  0  0  0
 28 32  1  0  0  0  0
 30 31  1  6  0  0  0
M  END
>  <CHROM.1>
-174.56386220,-133.65435731,-115.52021243,-169.44014084,-65.98509801,-164.88154654
19.30757734,27.12834543,34.86397282,-1.97468019,0.06884603,0.49648651

>  <Name>
ligand

>  <RI>
0

>  <Rbt.Current_Directory>
/home/itssahil/PROJECTS/Mol_Feturizer/New_Systems/rnas/4p3s

>  <Rbt.Executable>
rbdock ($Id: //depot/dev/client3/rdock/2013.1/src/exe/rbdock.cxx#4 $)

>  <Rbt.Library>
libRbt.so (2013.1, Build901 2013/11/27)

>  <Rbt.Parameter_File>
/export/apps/rDock/src/rDock_2013.1_src/data/scripts/dock_solv.prm

>  <Rbt.Receptor>
prm/pocket_docking_4.prm

>  <SCORE>
-4.28374

>  <SCORE.INTER>
-3.42596

>  <SCORE.INTER.CONST>
1

>  <SCORE.INTER.POLAR>
0

>  <SCORE.INTER.ROT>
6

>  <SCORE.INTER.SOLV>
18.999

>  <SCORE.INTER.VDW>
-16.217

>  <SCORE.INTER.norm>
-0.100764

>  <SCORE.INTRA>
-0.85778

>  <SCORE.INTRA.DIHEDRAL>
-6.41179

>  <SCORE.INTRA.DIHEDRAL.0>
15.8194

>  <SCORE.INTRA.POLAR>
0

>  <SCORE.INTRA.POLAR.0>
0

>  <SCORE.INTRA.REPUL>
0

>  <SCORE.INTRA.REPUL.0>
0

>  <SCORE.INTRA.SOLV>
3.32132

>  <SCORE.INTRA.SOLV.lig_0>
-71.9159

>  <SCORE.INTRA.VDW>
0.687455

>  <SCORE.INTRA.VDW.0>
-3.53918

>  <SCORE.INTRA.norm>
-0.0252288

>  <SCORE.RESTR>
0

>  <SCORE.RESTR.CAVITY>
0

>  <SCORE.RESTR.norm>
0

>  <SCORE.SYSTEM>
0

>  <SCORE.SYSTEM.CONST>
0

>  <SCORE.SYSTEM.DIHEDRAL>
0

>  <SCORE.SYSTEM.SOLV>
0

>  <SCORE.SYSTEM.norm>
0

>  <SCORE.heavy>
34

>  <SCORE.norm>
-0.125992

>  <RMSD>
4.460

$$$$
ligand
 OpenBabel01301917533D
libRbt.so/2013.1/901 2013/11/27
 34 36  0  0  0  0  0  0  0  0999 V2000
   16.5577   29.1328   36.4048 C   0  0  2  0  0  0  0  0  0  0  0  0
   17.4000   28.5096   37.3796 O   0  0  0  0  0  0  0  0  0  0  0  0
   17.6746   31.8801   40.0190 C   0  0  2  0  0  0  0  0  0  0  0  0
   17.9324   32.7116   41.2026 N   0  0  0  0  0  0  0  0  0  0  0  0
   20.2205   33.4786   39.9912 C   0  0  2  0  0  0  0  0  0  0  0  0
   15.9968   28.0088   35.4546 C   0  0  2  0  0  0  0  0  0  0  0  0
   15.2388   27.0053   36.2190 N   0  0  0  0  0  0  0  0  0  0  0  0
   16.7639   30.6802   40.4661 C   0  0  0  0  0  0  0  0  0  0  0  0
   21.1766   34.4757   39.2251 C   0  0  2  0  0  0  0  0  0  0  0  0
   20.4876   35.0900   38.1498 O   0  0  0  0  0  0  0  0  0  0  0  0
   17.1650   27.3240   34.6829 C   0  0  1  0  0  0  0  0  0  0  0  0
   16.6567   26.2956   33.8132 O   0  0  0  0  0  0  0  0  0  0  0  0
   16.4732   29.8036   39.1975 C   0  0  2  0  0  0  0  0  0  0  0  0
   15.6146   28.6371   39.5501 N   0  0  0  0  0  0  0  0  0  0  0  0
   22.4102   33.6568   38.6866 C   0  0  1  0  0  0  0  0  0  0  0  0
   23.3286   34.5280   37.9261 N   0  0  0  0  0  0  0  0  0  0  0  0
   17.9315   28.4109   33.8935 C   0  0  2  0  0  0  0  0  0  0  0  0
   19.0027   27.8004   33.1670 O   0  0  0  0  0  0  0  0  0  0  0  0
   17.7999   29.2794   38.5695 C   0  0  2  0  0  0  0  0  0  0  0  0
   23.1545   33.0050   39.8947 C   0  0  1  0  0  0  0  0  0  0  0  0
   23.6313   34.0444   40.7431 O   0  0  0  0  0  0  0  0  0  0  0  0
   18.4673   29.5033   34.9161 C   0  0  2  0  0  0  0  0  0  0  0  0
   17.3462   30.1147   35.6641 O   0  0  0  0  0  0  0  0  0  0  0  0
   18.7024   30.4885   38.2019 C   0  0  2  0  0  0  0  0  0  0  0  0
   19.9199   29.9814   37.6596 O   0  0  0  0  0  0  0  0  0  0  0  0
   22.1508   32.0973   40.6759 C   0  0  0  0  0  0  0  0  0  0  0  0
   20.9581   32.8626   41.1116 O   0  0  0  0  0  0  0  0  0  0  0  0
   19.2525   30.6479   34.2135 C   0  0  2  0  0  0  0  0  0  0  0  0
   18.5086   31.1021   33.0775 O   0  0  0  0  0  0  0  0  0  0  0  0
   19.0545   31.3435   39.4442 C   0  0  1  0  0  0  0  0  0  0  0  0
   19.8744   32.4592   38.9997 O   0  0  0  0  0  0  0  0  0  0  0  0
   20.6109   30.1937   33.7266 C   0  0  0  0  0  0  0  0  0  0  0  0
   24.3583   32.1726   39.4510 C   0  0  0  0  0  0  0  0  0  0  0  0
   23.4066   33.9931   36.5446 C   0  0  0  0  0  0  0  0  0  0  0  0
  1  2  1  1  0  0  0
  1  6  1  0  0  0  0
  1 23  1  0  0  0  0
  3  4  1  1  0  0  0
  3  8  1  0  0  0  0
  3 30  1  0  0  0  0
  5  9  1  0  0  0  0
  5 27  1  0  0  0  0
  5 31  1  6  0  0  0
  6  7  1  1  0  0  0
  6 11  1  0  0  0  0
  8 13  1  0  0  0  0
  9 10  1  6  0  0  0
  9 15  1  0  0  0  0
 11 12  1  6  0  0  0
 11 17  1  0  0  0  0
 13 14  1  1  0  0  0
 13 19  1  0  0  0  0
 15 16  1  1  0  0  0
 15 20  1  0  0  0  0
 16 34  1  0  0  0  0
 17 18  1  1  0  0  0
 17 22  1  0  0  0  0
 19  2  1  6  0  0  0
 19 24  1  0  0  0  0
 20 21  1  1  0  0  0
 20 26  1  0  0  0  0
 20 33  1  0  0  0  0
 22 23  1  6  0  0  0
 22 28  1  0  0  0  0
 24 25  1  1  0  0  0
 24 30  1  0  0  0  0
 26 27  1  0  0  0  0
 28 29  1  6  0  0  0
 28 32  1  0  0  0  0
 30 31  1  6  0  0  0
M  END
>  <CHROM.1>
-165.92338366,53.34207618,-119.58145261,46.97414504,58.79497265,176.37621903
19.30457045,30.91004502,37.56342170,2.35411984,-0.59369906,-1.93943455

>  <Name>
ligand

>  <RI>
0

>  <Rbt.Current_Directory>
/home/itssahil/PROJECTS/Mol_Feturizer/New_Systems/rnas/4p3s

>  <Rbt.Executable>
rbdock ($Id: //depot/dev/client3/rdock/2013.1/src/exe/rbdock.cxx#4 $)

>  <Rbt.Library>
libRbt.so (2013.1, Build901 2013/11/27)

>  <Rbt.Parameter_File>
/export/apps/rDock/src/rDock_2013.1_src/data/scripts/dock_solv.prm

>  <Rbt.Receptor>
prm/pocket_docking_8.prm

>  <SCORE>
-8.67649

>  <SCORE.INTER>
-4.74652

>  <SCORE.INTER.CONST>
1

>  <SCORE.INTER.POLAR>
0

>  <SCORE.INTER.ROT>
6

>  <SCORE.INTER.SOLV>
11.2656

>  <SCORE.INTER.VDW>
-14.5195

>  <SCORE.INTER.norm>
-0.139603

>  <SCORE.INTRA>
-3.92998

>  <SCORE.INTRA.DIHEDRAL>
-12.7005

>  <SCORE.INTRA.DIHEDRAL.0>
15.8194

>  <SCORE.INTRA.POLAR>
0

>  <SCORE.INTRA.POLAR.0>
0

>  <SCORE.INTRA.REPUL>
0

>  <SCORE.INTRA.REPUL.0>
0

>  <SCORE.INTRA.SOLV>
1.95049

>  <SCORE.INTRA.SOLV.lig_0>
-71.9159

>  <SCORE.INTRA.VDW>
1.44505

>  <SCORE.INTRA.VDW.0>
-3.53918

>  <SCORE.INTRA.norm>
-0.115588

>  <SCORE.RESTR>
0

>  <SCORE.RESTR.CAVITY>
0

>  <SCORE.RESTR.norm>
0

>  <SCORE.SYSTEM>
0

>  <SCORE.SYSTEM.CONST>
0

>  <SCORE.SYSTEM.DIHEDRAL>
0

>  <SCORE.SYSTEM.SOLV>
0

>  <SCORE.SYSTEM.norm>
0

>  <SCORE.heavy>
34

>  <SCORE.norm>
-0.255191

>  <RMSD>
4.485

$$$$
ligand
 OpenBabel01301917533D
libRbt.so/2013.1/901 2013/11/27
 34 36  0  0  0  0  0  0  0  0999 V2000
   16.9245   30.0020   34.8302 C   0  0  2  0  0  0  0  0  0  0  0  0
   18.0278   29.9839   35.7415 O   0  0  0  0  0  0  0  0  0  0  0  0
   21.2975   32.7081   36.2801 C   0  0  2  0  0  0  0  0  0  0  0  0
   22.5594   33.4341   36.0821 N   0  0  0  0  0  0  0  0  0  0  0  0
   19.2767   34.9840   36.3061 C   0  0  2  0  0  0  0  0  0  0  0  0
   15.5948   30.0218   35.6742 C   0  0  2  0  0  0  0  0  0  0  0  0
   15.5499   31.1998   36.5553 N   0  0  0  0  0  0  0  0  0  0  0  0
   21.6250   31.1712   36.2834 C   0  0  0  0  0  0  0  0  0  0  0  0
   18.4902   36.2543   35.7932 C   0  0  2  0  0  0  0  0  0  0  0  0
   17.5341   35.8801   34.8163 O   0  0  0  0  0  0  0  0  0  0  0  0
   15.4734   28.7171   36.5180 C   0  0  1  0  0  0  0  0  0  0  0  0
   14.2592   28.7311   37.2913 O   0  0  0  0  0  0  0  0  0  0  0  0
   20.2795   30.3975   36.5143 C   0  0  2  0  0  0  0  0  0  0  0  0
   20.5145   28.9254   36.5233 N   0  0  0  0  0  0  0  0  0  0  0  0
   19.5333   37.2624   35.1784 C   0  0  1  0  0  0  0  0  0  0  0  0
   18.8553   38.4613   34.6454 N   0  0  0  0  0  0  0  0  0  0  0  0
   15.5223   27.5074   35.5554 C   0  0  2  0  0  0  0  0  0  0  0  0
   15.3999   26.2977   36.3101 O   0  0  0  0  0  0  0  0  0  0  0  0
   19.2467   30.7346   35.3966 C   0  0  2  0  0  0  0  0  0  0  0  0
   20.5625   37.6650   36.2815 C   0  0  1  0  0  0  0  0  0  0  0  0
   19.8611   38.3188   37.3341 O   0  0  0  0  0  0  0  0  0  0  0  0
   16.8884   27.5542   34.7444 C   0  0  2  0  0  0  0  0  0  0  0  0
   17.0003   28.8163   33.9798 O   0  0  0  0  0  0  0  0  0  0  0  0
   18.9983   32.2674   35.3779 C   0  0  2  0  0  0  0  0  0  0  0  0
   18.0758   32.5519   34.3283 O   0  0  0  0  0  0  0  0  0  0  0  0
   21.2534   36.3725   36.8234 C   0  0  0  0  0  0  0  0  0  0  0  0
   20.2558   35.3995   37.3295 O   0  0  0  0  0  0  0  0  0  0  0  0
   17.0303   26.3741   33.7407 C   0  0  2  0  0  0  0  0  0  0  0  0
   16.9458   25.1354   34.4538 O   0  0  0  0  0  0  0  0  0  0  0  0
   20.2992   33.0587   35.0957 C   0  0  1  0  0  0  0  0  0  0  0  0
   19.9740   34.4758   35.1239 O   0  0  0  0  0  0  0  0  0  0  0  0
   18.3559   26.4000   33.0121 C   0  0  0  0  0  0  0  0  0  0  0  0
   21.6252   38.6309   35.7555 C   0  0  0  0  0  0  0  0  0  0  0  0
   18.8986   38.3750   33.1651 C   0  0  0  0  0  0  0  0  0  0  0  0
  1  2  1  1  0  0  0
  1  6  1  0  0  0  0
  1 23  1  0  0  0  0
  3  4  1  6  0  0  0
  3  8  1  0  0  0  0
  3 30  1  0  0  0  0
  5  9  1  0  0  0  0
  5 27  1  0  0  0  0
  5 31  1  6  0  0  0
  6  7  1  1  0  0  0
  6 11  1  0  0  0  0
  8 13  1  0  0  0  0
  9 10  1  6  0  0  0
  9 15  1  0  0  0  0
 11 12  1  6  0  0  0
 11 17  1  0  0  0  0
 13 14  1  6  0  0  0
 13 19  1  0  0  0  0
 15 16  1  1  0  0  0
 15 20  1  0  0  0  0
 16 34  1  0  0  0  0
 17 18  1  1  0  0  0
 17 22  1  0  0  0  0
 19  2  1  1  0  0  0
 19 24  1  0  0  0  0
 20 21  1  1  0  0  0
 20 26  1  0  0  0  0
 20 33  1  0  0  0  0
 22 23  1  6  0  0  0
 22 28  1  0  0  0  0
 24 25  1  6  0  0  0
 24 30  1  0  0  0  0
 26 27  1  0  0  0  0
 28 29  1  1  0  0  0
 28 32  1  0  0  0  0
 30 31  1  1  0  0  0
M  END
>  <CHROM.1>
-143.38183326,-174.77295176,-107.27752285,-58.34133583,-62.64091695,-154.00804930
18.56236986,32.17092597,35.54751468,1.91823381,0.06624229,-3.11015793

>  <Name>
ligand

>  <RI>
0

>  <Rbt.Current_Directory>
/home/itssahil/PROJECTS/Mol_Feturizer/New_Systems/rnas/4p3s

>  <Rbt.Executable>
rbdock ($Id: //depot/dev/client3/rdock/2013.1/src/exe/rbdock.cxx#4 $)

>  <Rbt.Library>
libRbt.so (2013.1, Build901 2013/11/27)

>  <Rbt.Parameter_File>
/export/apps/rDock/src/rDock_2013.1_src/data/scripts/dock_solv.prm

>  <Rbt.Receptor>
prm/pocket_docking_6.prm

>  <SCORE>
-10.252

>  <SCORE.INTER>
-8.13234

>  <SCORE.INTER.CONST>
1

>  <SCORE.INTER.POLAR>
0

>  <SCORE.INTER.ROT>
6

>  <SCORE.INTER.SOLV>
10.071

>  <SCORE.INTER.VDW>
-16.3786

>  <SCORE.INTER.norm>
-0.239187

>  <SCORE.INTRA>
-2.11965

>  <SCORE.INTRA.DIHEDRAL>
-6.80124

>  <SCORE.INTRA.DIHEDRAL.0>
15.8194

>  <SCORE.INTRA.POLAR>
0

>  <SCORE.INTRA.POLAR.0>
0

>  <SCORE.INTRA.REPUL>
0

>  <SCORE.INTRA.REPUL.0>
0

>  <SCORE.INTRA.SOLV>
0.938118

>  <SCORE.INTRA.SOLV.lig_0>
-71.9159

>  <SCORE.INTRA.VDW>
0.811912

>  <SCORE.INTRA.VDW.0>
-3.53918

>  <SCORE.INTRA.norm>
-0.0623427

>  <SCORE.RESTR>
0

>  <SCORE.RESTR.CAVITY>
0

>  <SCORE.RESTR.norm>
0

>  <SCORE.SYSTEM>
0

>  <SCORE.SYSTEM.CONST>
0

>  <SCORE.SYSTEM.DIHEDRAL>
0

>  <SCORE.SYSTEM.SOLV>
0

>  <SCORE.SYSTEM.norm>
0

>  <SCORE.heavy>
34

>  <SCORE.norm>
-0.301529

>  <RMSD>
4.581

$$$$
ligand
 OpenBabel01301917533D
libRbt.so/2013.1/901 2013/11/27
 34 36  0  0  0  0  0  0  0  0999 V2000
   16.5024   29.0772   36.5090 C   0  0  2  0  0  0  0  0  0  0  0  0
   17.4178   28.4805   37.4332 O   0  0  0  0  0  0  0  0  0  0  0  0
   17.6725   31.8191   40.1148 C   0  0  2  0  0  0  0  0  0  0  0  0
   17.9167   32.6353   41.3118 N   0  0  0  0  0  0  0  0  0  0  0  0
   20.2340   33.3971   40.1475 C   0  0  2  0  0  0  0  0  0  0  0  0
   16.0152   27.9581   35.5135 C   0  0  2  0  0  0  0  0  0  0  0  0
   15.3634   26.8567   36.2402 N   0  0  0  0  0  0  0  0  0  0  0  0
   16.7467   30.6205   40.5337 C   0  0  0  0  0  0  0  0  0  0  0  0
   21.1516   34.4350   39.3885 C   0  0  2  0  0  0  0  0  0  0  0  0
   20.4276   35.0592   38.3422 O   0  0  0  0  0  0  0  0  0  0  0  0
   17.2177   27.4147   34.6842 C   0  0  1  0  0  0  0  0  0  0  0  0
   16.7768   26.3913   33.7729 O   0  0  0  0  0  0  0  0  0  0  0  0
   16.4706   29.7602   39.2507 C   0  0  2  0  0  0  0  0  0  0  0  0
   15.5987   28.5957   39.5762 N   0  0  0  0  0  0  0  0  0  0  0  0
   22.3929   33.6589   38.8063 C   0  0  1  0  0  0  0  0  0  0  0  0
   23.2759   34.5700   38.0504 N   0  0  0  0  0  0  0  0  0  0  0  0
   17.8704   28.6011   33.9367 C   0  0  2  0  0  0  0  0  0  0  0  0
   18.9711   28.1212   33.1582 O   0  0  0  0  0  0  0  0  0  0  0  0
   17.8037   29.2340   38.6380 C   0  0  2  0  0  0  0  0  0  0  0  0
   23.1756   32.9954   39.9833 C   0  0  1  0  0  0  0  0  0  0  0  0
   23.6449   34.0245   40.8481 O   0  0  0  0  0  0  0  0  0  0  0  0
   18.3371   29.6831   35.0033 C   0  0  2  0  0  0  0  0  0  0  0  0
   17.1871   30.1585   35.8043 O   0  0  0  0  0  0  0  0  0  0  0  0
   18.7199   30.4410   38.2987 C   0  0  2  0  0  0  0  0  0  0  0  0
   19.9427   29.9318   37.7702 O   0  0  0  0  0  0  0  0  0  0  0  0
   22.2088   32.0454   40.7605 C   0  0  0  0  0  0  0  0  0  0  0  0
   21.0075   32.7714   41.2379 O   0  0  0  0  0  0  0  0  0  0  0  0
   19.0056   30.9241   34.3451 C   0  0  2  0  0  0  0  0  0  0  0  0
   20.1484   30.5011   33.5933 O   0  0  0  0  0  0  0  0  0  0  0  0
   19.0578   31.2795   39.5562 C   0  0  1  0  0  0  0  0  0  0  0  0
   19.8921   32.3945   39.1375 O   0  0  0  0  0  0  0  0  0  0  0  0
   19.4731   31.9327   35.3712 C   0  0  0  0  0  0  0  0  0  0  0  0
   24.3894   32.2027   39.4960 C   0  0  0  0  0  0  0  0  0  0  0  0
   23.3607   34.0558   36.6615 C   0  0  0  0  0  0  0  0  0  0  0  0
  1  2  1  1  0  0  0
  1  6  1  0  0  0  0
  1 23  1  0  0  0  0
  3  4  1  1  0  0  0
  3  8  1  0  0  0  0
  3 30  1  0  0  0  0
  5  9  1  0  0  0  0
  5 27  1  0  0  0  0
  5 31  1  6  0  0  0
  6  7  1  1  0  0  0
  6 11  1  0  0  0  0
  8 13  1  0  0  0  0
  9 10  1  6  0  0  0
  9 15  1  0  0  0  0
 11 12  1  6  0  0  0
 11 17  1  0  0  0  0
 13 14  1  1  0  0  0
 13 19  1  0  0  0  0
 15 16  1  1  0  0  0
 15 20  1  0  0  0  0
 16 34  1  0  0  0  0
 17 18  1  1  0  0  0
 17 22  1  0  0  0  0
 19  2  1  6  0  0  0
 19 24  1  0  0  0  0
 20 21  1  1  0  0  0
 20 26  1  0  0  0  0
 20 33  1  0  0  0  0
 22 23  1  6  0  0  0
 22 28  1  0  0  0  0
 24 25  1  1  0  0  0
 24 30  1  0  0  0  0
 26 27  1  0  0  0  0
 28 29  1  1  0  0  0
 28 32  1  0  0  0  0
 30 31  1  6  0  0  0
M  END
>  <CHROM.1>
-167.27454955,47.98101158,-120.69338645,-59.20752277,59.06205060,179.01338345
19.31394241,30.94964527,37.71324760,2.38055829,-0.60074275,-1.92822035

>  <Name>
ligand

>  <RI>
0

>  <Rbt.Current_Directory>
/home/itssahil/PROJECTS/Mol_Feturizer/New_Systems/rnas/4p3s

>  <Rbt.Executable>
rbdock ($Id: //depot/dev/client3/rdock/2013.1/src/exe/rbdock.cxx#4 $)

>  <Rbt.Library>
libRbt.so (2013.1, Build901 2013/11/27)

>  <Rbt.Parameter_File>
/export/apps/rDock/src/rDock_2013.1_src/data/scripts/dock_solv.prm

>  <Rbt.Receptor>
prm/pocket_docking_6.prm

>  <SCORE>
-8.66488

>  <SCORE.INTER>
-4.06942

>  <SCORE.INTER.CONST>
1

>  <SCORE.INTER.POLAR>
0

>  <SCORE.INTER.ROT>
6

>  <SCORE.INTER.SOLV>
10.7946

>  <SCORE.INTER.VDW>
-13.9111

>  <SCORE.INTER.norm>
-0.119689

>  <SCORE.INTRA>
-4.59546

>  <SCORE.INTRA.DIHEDRAL>
-13.031

>  <SCORE.INTRA.DIHEDRAL.0>
15.8194

>  <SCORE.INTRA.POLAR>
0

>  <SCORE.INTRA.POLAR.0>
0

>  <SCORE.INTRA.REPUL>
0

>  <SCORE.INTRA.REPUL.0>
0

>  <SCORE.INTRA.SOLV>
1.82779

>  <SCORE.INTRA.SOLV.lig_0>
-71.9159

>  <SCORE.INTRA.VDW>
1.00613

>  <SCORE.INTRA.VDW.0>
-3.53918

>  <SCORE.INTRA.norm>
-0.135161

>  <SCORE.RESTR>
0

>  <SCORE.RESTR.CAVITY>
0

>  <SCORE.RESTR.norm>
0

>  <SCORE.SYSTEM>
0

>  <SCORE.SYSTEM.CONST>
0

>  <SCORE.SYSTEM.DIHEDRAL>
0

>  <SCORE.SYSTEM.SOLV>
0

>  <SCORE.SYSTEM.norm>
0

>  <SCORE.heavy>
34

>  <SCORE.norm>
-0.254849

>  <RMSD>
4.618

$$$$
ligand
 OpenBabel01301917533D
libRbt.so/2013.1/901 2013/11/27
 34 36  0  0  0  0  0  0  0  0999 V2000
   16.4721   28.9855   36.6095 C   0  0  2  0  0  0  0  0  0  0  0  0
   17.4565   28.4354   37.4907 O   0  0  0  0  0  0  0  0  0  0  0  0
   17.6706   31.7796   40.1689 C   0  0  2  0  0  0  0  0  0  0  0  0
   17.9150   32.6021   41.3616 N   0  0  0  0  0  0  0  0  0  0  0  0
   20.2154   33.4101   40.1618 C   0  0  2  0  0  0  0  0  0  0  0  0
   16.0589   27.8671   35.5803 C   0  0  2  0  0  0  0  0  0  0  0  0
   15.5207   26.6869   36.2757 N   0  0  0  0  0  0  0  0  0  0  0  0
   16.7854   30.5564   40.6042 C   0  0  0  0  0  0  0  0  0  0  0  0
   21.1112   34.4588   39.3916 C   0  0  2  0  0  0  0  0  0  0  0  0
   20.3611   35.0885   38.3672 O   0  0  0  0  0  0  0  0  0  0  0  0
   17.2836   27.4611   34.7061 C   0  0  1  0  0  0  0  0  0  0  0  0
   16.9104   26.4386   33.7640 O   0  0  0  0  0  0  0  0  0  0  0  0
   16.5089   29.6891   39.3261 C   0  0  2  0  0  0  0  0  0  0  0  0
   15.6748   28.5015   39.6670 N   0  0  0  0  0  0  0  0  0  0  0  0
   22.3426   33.6935   38.7750 C   0  0  1  0  0  0  0  0  0  0  0  0
   23.2044   34.6151   38.0076 N   0  0  0  0  0  0  0  0  0  0  0  0
   17.8150   28.7266   33.9933 C   0  0  2  0  0  0  0  0  0  0  0  0
   18.9341   28.3732   33.1744 O   0  0  0  0  0  0  0  0  0  0  0  0
   17.8441   29.1991   38.6885 C   0  0  2  0  0  0  0  0  0  0  0  0
   23.1545   33.0235   39.9283 C   0  0  1  0  0  0  0  0  0  0  0  0
   23.6384   34.0473   40.7915 O   0  0  0  0  0  0  0  0  0  0  0  0
   18.2126   29.8037   35.0924 C   0  0  2  0  0  0  0  0  0  0  0  0
   17.0453   30.1477   35.9346 O   0  0  0  0  0  0  0  0  0  0  0  0
   18.7211   30.4303   38.3330 C   0  0  2  0  0  0  0  0  0  0  0  0
   19.9471   29.9542   37.7816 O   0  0  0  0  0  0  0  0  0  0  0  0
   22.2095   32.0623   40.7187 C   0  0  0  0  0  0  0  0  0  0  0  0
   21.0160   32.7786   41.2291 O   0  0  0  0  0  0  0  0  0  0  0  0
   18.7572   31.1217   34.4706 C   0  0  2  0  0  0  0  0  0  0  0  0
   19.9022   30.8248   33.6638 O   0  0  0  0  0  0  0  0  0  0  0  0
   19.0594   31.2776   39.5844 C   0  0  1  0  0  0  0  0  0  0  0  0
   19.8555   32.4147   39.1510 O   0  0  0  0  0  0  0  0  0  0  0  0
   19.1801   32.1194   35.5263 C   0  0  0  0  0  0  0  0  0  0  0  0
   24.3605   32.2407   39.4071 C   0  0  0  0  0  0  0  0  0  0  0  0
   23.2159   34.1450   36.6006 C   0  0  0  0  0  0  0  0  0  0  0  0
  1  2  1  1  0  0  0
  1  6  1  0  0  0  0
  1 23  1  0  0  0  0
  3  4  1  1  0  0  0
  3  8  1  0  0  0  0
  3 30  1  0  0  0  0
  5  9  1  0  0  0  0
  5 27  1  0  0  0  0
  5 31  1  6  0  0  0
  6  7  1  1  0  0  0
  6 11  1  0  0  0  0
  8 13  1  0  0  0  0
  9 10  1  6  0  0  0
  9 15  1  0  0  0  0
 11 12  1  6  0  0  0
 11 17  1  0  0  0  0
 13 14  1  1  0  0  0
 13 19  1  0  0  0  0
 15 16  1  1  0  0  0
 15 20  1  0  0  0  0
 16 34  1  0  0  0  0
 17 18  1  1  0  0  0
 17 22  1  0  0  0  0
 19  2  1  6  0  0  0
 19 24  1  0  0  0  0
 20 21  1  1  0  0  0
 20 26  1  0  0  0  0
 20 33  1  0  0  0  0
 22 23  1  6  0  0  0
 22 28  1  0  0  0  0
 24 25  1  1  0  0  0
 24 30  1  0  0  0  0
 26 27  1  0  0  0  0
 28 29  1  6  0  0  0
 28 32  1  0  0  0  0
 30 31  1  6  0  0  0
M  END
>  <CHROM.1>
-169.70280683,45.72209723,-118.43184357,-58.35733952,60.46252656,177.74924318
19.28293855,30.97951731,37.74357240,2.41276398,-0.63766439,-1.89040600

>  <Name>
ligand

>  <RI>
0

>  <Rbt.Current_Directory>
/home/itssahil/PROJECTS/Mol_Feturizer/New_Systems/rnas/4p3s

>  <Rbt.Executable>
rbdock ($Id: //depot/dev/client3/rdock/2013.1/src/exe/rbdock.cxx#4 $)

>  <Rbt.Library>
libRbt.so (2013.1, Build901 2013/11/27)

>  <Rbt.Parameter_File>
/export/apps/rDock/src/rDock_2013.1_src/data/scripts/dock_solv.prm

>  <Rbt.Receptor>
prm/pocket_docking_7.prm

>  <SCORE>
-8.7209

>  <SCORE.INTER>
-4.01711

>  <SCORE.INTER.CONST>
1

>  <SCORE.INTER.POLAR>
0

>  <SCORE.INTER.ROT>
6

>  <SCORE.INTER.SOLV>
10.2163

>  <SCORE.INTER.VDW>
-13.6835

>  <SCORE.INTER.norm>
-0.11815

>  <SCORE.INTRA>
-4.70378

>  <SCORE.INTRA.DIHEDRAL>
-12.9958

>  <SCORE.INTRA.DIHEDRAL.0>
15.8194

>  <SCORE.INTRA.POLAR>
0

>  <SCORE.INTRA.POLAR.0>
0

>  <SCORE.INTRA.REPUL>
0

>  <SCORE.INTRA.REPUL.0>
0

>  <SCORE.INTRA.SOLV>
1.71447

>  <SCORE.INTRA.SOLV.lig_0>
-71.9159

>  <SCORE.INTRA.VDW>
0.936872

>  <SCORE.INTRA.VDW.0>
-3.53918

>  <SCORE.INTRA.norm>
-0.138347

>  <SCORE.RESTR>
0

>  <SCORE.RESTR.CAVITY>
0

>  <SCORE.RESTR.norm>
0

>  <SCORE.SYSTEM>
0

>  <SCORE.SYSTEM.CONST>
0

>  <SCORE.SYSTEM.DIHEDRAL>
0

>  <SCORE.SYSTEM.SOLV>
0

>  <SCORE.SYSTEM.norm>
0

>  <SCORE.heavy>
34

>  <SCORE.norm>
-0.256497

>  <RMSD>
4.659

$$$$
ligand
 OpenBabel01301917533D
libRbt.so/2013.1/901 2013/11/27
 34 36  0  0  0  0  0  0  0  0999 V2000
   18.4692   28.0091   33.5965 C   0  0  2  0  0  0  0  0  0  0  0  0
   19.4788   27.6064   34.5276 O   0  0  0  0  0  0  0  0  0  0  0  0
   22.3544   30.0254   36.5968 C   0  0  2  0  0  0  0  0  0  0  0  0
   22.9564   31.0550   37.4547 N   0  0  0  0  0  0  0  0  0  0  0  0
   22.8296   29.0050   39.6347 C   0  0  2  0  0  0  0  0  0  0  0  0
   17.1193   28.1887   34.3879 C   0  0  2  0  0  0  0  0  0  0  0  0
   17.2645   29.1950   35.4520 N   0  0  0  0  0  0  0  0  0  0  0  0
   21.3908   30.7472   35.5870 C   0  0  0  0  0  0  0  0  0  0  0  0
   24.0142   28.1465   40.2308 C   0  0  2  0  0  0  0  0  0  0  0  0
   25.1170   28.1445   39.3407 O   0  0  0  0  0  0  0  0  0  0  0  0
   16.6671   26.8271   34.9967 C   0  0  1  0  0  0  0  0  0  0  0  0
   15.4334   26.9867   35.7213 O   0  0  0  0  0  0  0  0  0  0  0  0
   20.7632   29.6489   34.6587 C   0  0  2  0  0  0  0  0  0  0  0  0
   19.8283   30.2643   33.6739 N   0  0  0  0  0  0  0  0  0  0  0  0
   23.4911   26.6775   40.4555 C   0  0  1  0  0  0  0  0  0  0  0  0
   24.5656   25.8107   40.9798 N   0  0  0  0  0  0  0  0  0  0  0  0
   16.5247   25.8021   33.8473 C   0  0  2  0  0  0  0  0  0  0  0  0
   16.0977   24.5462   34.3841 O   0  0  0  0  0  0  0  0  0  0  0  0
   19.9841   28.5917   35.4982 C   0  0  2  0  0  0  0  0  0  0  0  0
   22.2872   26.7127   41.4494 C   0  0  1  0  0  0  0  0  0  0  0  0
   22.7466   27.2295   42.6941 O   0  0  0  0  0  0  0  0  0  0  0  0
   17.9219   25.6735   33.1008 C   0  0  2  0  0  0  0  0  0  0  0  0
   18.3504   26.9838   32.5625 O   0  0  0  0  0  0  0  0  0  0  0  0
   20.9500   27.9475   36.5294 C   0  0  2  0  0  0  0  0  0  0  0  0
   20.2064   27.0089   37.3039 O   0  0  0  0  0  0  0  0  0  0  0  0
   21.1760   27.6420   40.8637 C   0  0  0  0  0  0  0  0  0  0  0  0
   21.7003   29.0005   40.5852 O   0  0  0  0  0  0  0  0  0  0  0  0
   17.8792   24.6630   31.9187 C   0  0  2  0  0  0  0  0  0  0  0  0
   17.3451   23.4178   32.3816 O   0  0  0  0  0  0  0  0  0  0  0  0
   21.5438   28.9996   37.4984 C   0  0  1  0  0  0  0  0  0  0  0  0
   22.4499   28.3108   38.4035 O   0  0  0  0  0  0  0  0  0  0  0  0
   19.2538   24.3939   31.3471 C   0  0  0  0  0  0  0  0  0  0  0  0
   21.7078   25.3206   41.7048 C   0  0  0  0  0  0  0  0  0  0  0  0
   25.2465   25.1932   39.8153 C   0  0  0  0  0  0  0  0  0  0  0  0
  1  2  1  1  0  0  0
  1  6  1  0  0  0  0
  1 23  1  0  0  0  0
  3  4  1  1  0  0  0
  3  8  1  0  0  0  0
  3 30  1  0  0  0  0
  5  9  1  0  0  0  0
  5 27  1  0  0  0  0
  5 31  1  6  0  0  0
  6  7  1  1  0  0  0
  6 11  1  0  0  0  0
  8 13  1  0  0  0  0
  9 10  1  6  0  0  0
  9 15  1  0  0  0  0
 11 12  1  6  0  0  0
 11 17  1  0  0  0  0
 13 14  1  6  0  0  0
 13 19  1  0  0  0  0
 15 16  1  1  0  0  0
 15 20  1  0  0  0  0
 16 34  1  0  0  0  0
 17 18  1  1  0  0  0
 17 22  1  0  0  0  0
 19  2  1  6  0  0  0
 19 24  1  0  0  0  0
 20 21  1  1  0  0  0
 20 26  1  0  0  0  0
 20 33  1  0  0  0  0
 22 23  1  6  0  0  0
 22 28  1  0  0  0  0
 24 25  1  1  0  0  0
 24 30  1  0  0  0  0
 26 27  1  0  0  0  0
 28 29  1  1  0  0  0
 28 32  1  0  0  0  0
 30 31  1  1  0  0  0
M  END
>  <CHROM.1>
-71.59683320,-67.76507887,-91.09508155,-52.00252243,81.83980834,-168.90636408
20.43628249,27.42145097,36.75235583,-2.85312154,0.86158720,2.58540453

>  <Name>
ligand

>  <RI>
0

>  <Rbt.Current_Directory>
/home/itssahil/PROJECTS/Mol_Feturizer/New_Systems/rnas/4p3s

>  <Rbt.Executable>
rbdock ($Id: //depot/dev/client3/rdock/2013.1/src/exe/rbdock.cxx#4 $)

>  <Rbt.Library>
libRbt.so (2013.1, Build901 2013/11/27)

>  <Rbt.Parameter_File>
/export/apps/rDock/src/rDock_2013.1_src/data/scripts/dock_solv.prm

>  <Rbt.Receptor>
prm/pocket_docking_5.prm

>  <SCORE>
-12.3397

>  <SCORE.INTER>
-10.6689

>  <SCORE.INTER.CONST>
1

>  <SCORE.INTER.POLAR>
0

>  <SCORE.INTER.ROT>
6

>  <SCORE.INTER.SOLV>
12.9317

>  <SCORE.INTER.VDW>
-19.0232

>  <SCORE.INTER.norm>
-0.313791

>  <SCORE.INTRA>
-1.67077

>  <SCORE.INTRA.DIHEDRAL>
-11.231

>  <SCORE.INTRA.DIHEDRAL.0>
15.8194

>  <SCORE.INTRA.POLAR>
0

>  <SCORE.INTRA.POLAR.0>
0

>  <SCORE.INTRA.REPUL>
0

>  <SCORE.INTRA.REPUL.0>
0

>  <SCORE.INTRA.SOLV>
3.83521

>  <SCORE.INTRA.SOLV.lig_0>
-71.9159

>  <SCORE.INTRA.VDW>
2.02711

>  <SCORE.INTRA.VDW.0>
-3.53918

>  <SCORE.INTRA.norm>
-0.0491402

>  <SCORE.RESTR>
0

>  <SCORE.RESTR.CAVITY>
0

>  <SCORE.RESTR.norm>
0

>  <SCORE.SYSTEM>
0

>  <SCORE.SYSTEM.CONST>
0

>  <SCORE.SYSTEM.DIHEDRAL>
0

>  <SCORE.SYSTEM.SOLV>
0

>  <SCORE.SYSTEM.norm>
0

>  <SCORE.heavy>
34

>  <SCORE.norm>
-0.362931

>  <RMSD>
4.798

$$$$
ligand
 OpenBabel01301917533D
libRbt.so/2013.1/901 2013/11/27
 34 36  0  0  0  0  0  0  0  0999 V2000
   16.0508   29.3263   36.8610 C   0  0  2  0  0  0  0  0  0  0  0  0
   16.9649   29.9785   37.7482 O   0  0  0  0  0  0  0  0  0  0  0  0
   19.3238   28.5466   41.0326 C   0  0  2  0  0  0  0  0  0  0  0  0
   20.2331   27.7324   41.8505 N   0  0  0  0  0  0  0  0  0  0  0  0
   22.3559   29.5045   40.9330 C   0  0  2  0  0  0  0  0  0  0  0  0
   16.8676   28.7927   35.6245 C   0  0  2  0  0  0  0  0  0  0  0  0
   17.9190   27.8569   36.0543 N   0  0  0  0  0  0  0  0  0  0  0  0
   18.2004   27.5982   40.4778 C   0  0  0  0  0  0  0  0  0  0  0  0
   23.2691   30.7338   41.3206 C   0  0  2  0  0  0  0  0  0  0  0  0
   22.6319   31.5292   42.3054 O   0  0  0  0  0  0  0  0  0  0  0  0
   17.4982   29.9836   34.8415 C   0  0  1  0  0  0  0  0  0  0  0  0
   18.2460   29.5004   33.7104 O   0  0  0  0  0  0  0  0  0  0  0  0
   17.2191   28.4723   39.6203 C   0  0  2  0  0  0  0  0  0  0  0  0
   16.1251   27.6325   39.0543 N   0  0  0  0  0  0  0  0  0  0  0  0
   23.5295   31.5817   40.0185 C   0  0  1  0  0  0  0  0  0  0  0  0
   24.3509   32.7712   40.3206 N   0  0  0  0  0  0  0  0  0  0  0  0
   16.3616   30.9386   34.4077 C   0  0  2  0  0  0  0  0  0  0  0  0
   16.9187   32.0346   33.6754 O   0  0  0  0  0  0  0  0  0  0  0  0
   17.9755   29.1685   38.4488 C   0  0  2  0  0  0  0  0  0  0  0  0
   24.2434   30.6824   38.9602 C   0  0  1  0  0  0  0  0  0  0  0  0
   25.4968   30.2683   39.4940 O   0  0  0  0  0  0  0  0  0  0  0  0
   15.5882   31.4354   35.7042 C   0  0  2  0  0  0  0  0  0  0  0  0
   15.0291   30.2874   36.4523 O   0  0  0  0  0  0  0  0  0  0  0  0
   19.1195   30.0434   39.0295 C   0  0  2  0  0  0  0  0  0  0  0  0
   19.8140   30.6429   37.9376 O   0  0  0  0  0  0  0  0  0  0  0  0
   23.3482   29.4346   38.6718 C   0  0  0  0  0  0  0  0  0  0  0  0
   23.0471   28.6875   39.9164 O   0  0  0  0  0  0  0  0  0  0  0  0
   14.4167   32.4029   35.3696 C   0  0  2  0  0  0  0  0  0  0  0  0
   13.6470   31.8569   34.2927 O   0  0  0  0  0  0  0  0  0  0  0  0
   20.1379   29.1997   39.8355 C   0  0  1  0  0  0  0  0  0  0  0  0
   21.1503   30.1032   40.3585 O   0  0  0  0  0  0  0  0  0  0  0  0
   14.9079   33.7685   34.9425 C   0  0  0  0  0  0  0  0  0  0  0  0
   24.5141   31.4306   37.6542 C   0  0  0  0  0  0  0  0  0  0  0  0
   23.4255   33.9171   40.4973 C   0  0  0  0  0  0  0  0  0  0  0  0
  1  2  1  1  0  0  0
  1  6  1  0  0  0  0
  1 23  1  0  0  0  0
  3  4  1  1  0  0  0
  3  8  1  0  0  0  0
  3 30  1  0  0  0  0
  5  9  1  0  0  0  0
  5 27  1  0  0  0  0
  5 31  1  6  0  0  0
  6  7  1  1  0  0  0
  6 11  1  0  0  0  0
  8 13  1  0  0  0  0
  9 10  1  1  0  0  0
  9 15  1  0  0  0  0
 11 12  1  6  0  0  0
 11 17  1  0  0  0  0
 13 14  1  6  0  0  0
 13 19  1  0  0  0  0
 15 16  1  1  0  0  0
 15 20  1  0  0  0  0
 16 34  1  0  0  0  0
 17 18  1  1  0  0  0
 17 22  1  0  0  0  0
 19  2  1  1  0  0  0
 19 24  1  0  0  0  0
 20 21  1  1  0  0  0
 20 26  1  0  0  0  0
 20 33  1  0  0  0  0
 22 23  1  6  0  0  0
 22 28  1  0  0  0  0
 24 25  1  6  0  0  0
 24 30  1  0  0  0  0
 26 27  1  0  0  0  0
 28 29  1  6  0  0  0
 28 32  1  0  0  0  0
 30 31  1  1  0  0  0
M  END
>  <CHROM.1>
-67.53055439,-77.81056802,-96.92034500,46.65275246,76.19382273,176.76345584
19.41942275,30.26356293,38.13223206,2.71069622,-0.39513927,-0.84550366

>  <Name>
ligand

>  <RI>
0

>  <Rbt.Current_Directory>
/home/itssahil/PROJECTS/Mol_Feturizer/New_Systems/rnas/4p3s

>  <Rbt.Executable>
rbdock ($Id: //depot/dev/client3/rdock/2013.1/src/exe/rbdock.cxx#4 $)

>  <Rbt.Library>
libRbt.so (2013.1, Build901 2013/11/27)

>  <Rbt.Parameter_File>
/export/apps/rDock/src/rDock_2013.1_src/data/scripts/dock_solv.prm

>  <Rbt.Receptor>
prm/pocket_docking_7.prm

>  <SCORE>
-8.26039

>  <SCORE.INTER>
-5.98661

>  <SCORE.INTER.CONST>
1

>  <SCORE.INTER.POLAR>
0

>  <SCORE.INTER.ROT>
6

>  <SCORE.INTER.SOLV>
11.1649

>  <SCORE.INTER.VDW>
-15.3127

>  <SCORE.INTER.norm>
-0.176077

>  <SCORE.INTRA>
-2.27378

>  <SCORE.INTRA.DIHEDRAL>
-11.3046

>  <SCORE.INTRA.DIHEDRAL.0>
15.8194

>  <SCORE.INTRA.POLAR>
0

>  <SCORE.INTRA.POLAR.0>
0

>  <SCORE.INTRA.REPUL>
0

>  <SCORE.INTRA.REPUL.0>
0

>  <SCORE.INTRA.SOLV>
3.80291

>  <SCORE.INTRA.SOLV.lig_0>
-71.9159

>  <SCORE.INTRA.VDW>
1.47707

>  <SCORE.INTRA.VDW.0>
-3.53918

>  <SCORE.INTRA.norm>
-0.0668757

>  <SCORE.RESTR>
0

>  <SCORE.RESTR.CAVITY>
0

>  <SCORE.RESTR.norm>
0

>  <SCORE.SYSTEM>
0

>  <SCORE.SYSTEM.CONST>
0

>  <SCORE.SYSTEM.DIHEDRAL>
0

>  <SCORE.SYSTEM.SOLV>
0

>  <SCORE.SYSTEM.norm>
0

>  <SCORE.heavy>
34

>  <SCORE.norm>
-0.242953

>  <RMSD>
5.005

$$$$
ligand
 OpenBabel01301917533D
libRbt.so/2013.1/901 2013/11/27
 34 36  0  0  0  0  0  0  0  0999 V2000
   15.7744   30.4516   36.6908 C   0  0  2  0  0  0  0  0  0  0  0  0
   16.2777   30.1921   38.0052 O   0  0  0  0  0  0  0  0  0  0  0  0
   17.6717   34.1701   38.8016 C   0  0  2  0  0  0  0  0  0  0  0  0
   18.1373   35.3740   39.5034 N   0  0  0  0  0  0  0  0  0  0  0  0
   20.6229   34.6584   38.7835 C   0  0  2  0  0  0  0  0  0  0  0  0
   14.8777   29.2300   36.2616 C   0  0  2  0  0  0  0  0  0  0  0  0
   13.7657   29.0376   37.2064 N   0  0  0  0  0  0  0  0  0  0  0  0
   16.3083   33.7351   39.4505 C   0  0  0  0  0  0  0  0  0  0  0  0
   21.9945   34.7304   38.0031 C   0  0  2  0  0  0  0  0  0  0  0  0
   21.7629   34.8143   36.6075 O   0  0  0  0  0  0  0  0  0  0  0  0
   15.7388   27.9337   36.1770 C   0  0  1  0  0  0  0  0  0  0  0  0
   14.9228   26.8143   35.7851 O   0  0  0  0  0  0  0  0  0  0  0  0
   15.8022   32.4606   38.6877 C   0  0  2  0  0  0  0  0  0  0  0  0
   14.5088   31.9861   39.2570 N   0  0  0  0  0  0  0  0  0  0  0  0
   22.8211   33.4328   38.3424 C   0  0  1  0  0  0  0  0  0  0  0  0
   24.1049   33.4208   37.6126 N   0  0  0  0  0  0  0  0  0  0  0  0
   16.8909   28.1781   35.1745 C   0  0  2  0  0  0  0  0  0  0  0  0
   17.6879   26.9939   35.0726 O   0  0  0  0  0  0  0  0  0  0  0  0
   16.8459   31.3068   38.7815 C   0  0  2  0  0  0  0  0  0  0  0  0
   23.0707   33.3771   39.8828 C   0  0  1  0  0  0  0  0  0  0  0  0
   23.8372   34.5175   40.2558 O   0  0  0  0  0  0  0  0  0  0  0  0
   17.7494   29.4186   35.6746 C   0  0  2  0  0  0  0  0  0  0  0  0
   16.9055   30.6295   35.7833 O   0  0  0  0  0  0  0  0  0  0  0  0
   18.1981   31.7936   38.1933 C   0  0  2  0  0  0  0  0  0  0  0  0
   19.1419   30.7321   38.3198 O   0  0  0  0  0  0  0  0  0  0  0  0
   21.6925   33.3970   40.6187 C   0  0  0  0  0  0  0  0  0  0  0  0
   20.8922   34.5839   40.2329 O   0  0  0  0  0  0  0  0  0  0  0  0
   18.9365   29.7481   34.7245 C   0  0  2  0  0  0  0  0  0  0  0  0
   19.7869   28.6012   34.6169 O   0  0  0  0  0  0  0  0  0  0  0  0
   18.7533   33.0182   38.9617 C   0  0  1  0  0  0  0  0  0  0  0  0
   19.9994   33.4158   38.3261 O   0  0  0  0  0  0  0  0  0  0  0  0
   19.7740   30.8999   35.2349 C   0  0  0  0  0  0  0  0  0  0  0  0
   23.8535   32.1302   40.2967 C   0  0  0  0  0  0  0  0  0  0  0  0
   24.1624   32.1586   36.8353 C   0  0  0  0  0  0  0  0  0  0  0  0
  1  2  1  1  0  0  0
  1  6  1  0  0  0  0
  1 23  1  0  0  0  0
  3  4  1  1  0  0  0
  3  8  1  0  0  0  0
  3 30  1  0  0  0  0
  5  9  1  0  0  0  0
  5 27  1  0  0  0  0
  5 31  1  6  0  0  0
  6  7  1  1  0  0  0
  6 11  1  0  0  0  0
  8 13  1  0  0  0  0
  9 10  1  6  0  0  0
  9 15  1  0  0  0  0
 11 12  1  6  0  0  0
 11 17  1  0  0  0  0
 13 14  1  1  0  0  0
 13 19  1  0  0  0  0
 15 16  1  6  0  0  0
 15 20  1  0  0  0  0
 16 34  1  0  0  0  0
 17 18  1  1  0  0  0
 17 22  1  0  0  0  0
 19  2  1  6  0  0  0
 19 24  1  0  0  0  0
 20 21  1  1  0  0  0
 20 26  1  0  0  0  0
 20 33  1  0  0  0  0
 22 23  1  6  0  0  0
 22 28  1  0  0  0  0
 24 25  1  1  0  0  0
 24 30  1  0  0  0  0
 26 27  1  0  0  0  0
 28 29  1  1  0  0  0
 28 32  1  0  0  0  0
 30 31  1  6  0  0  0
M  END
>  <CHROM.1>
-164.13561221,48.79222069,-124.23495941,-58.51909651,57.25440249,175.06922121
18.95926758,31.66330512,37.69290423,2.43382198,-0.15398339,-2.45909023

>  <Name>
ligand

>  <RI>
0

>  <Rbt.Current_Directory>
/home/itssahil/PROJECTS/Mol_Feturizer/New_Systems/rnas/4p3s

>  <Rbt.Executable>
rbdock ($Id: //depot/dev/client3/rdock/2013.1/src/exe/rbdock.cxx#4 $)

>  <Rbt.Library>
libRbt.so (2013.1, Build901 2013/11/27)

>  <Rbt.Parameter_File>
/export/apps/rDock/src/rDock_2013.1_src/data/scripts/dock_solv.prm

>  <Rbt.Receptor>
prm/pocket_docking_6.prm

>  <SCORE>
-9.7867

>  <SCORE.INTER>
-5.792

>  <SCORE.INTER.CONST>
1

>  <SCORE.INTER.POLAR>
0

>  <SCORE.INTER.ROT>
6

>  <SCORE.INTER.SOLV>
13.3895

>  <SCORE.INTER.VDW>
-15.9245

>  <SCORE.INTER.norm>
-0.170353

>  <SCORE.INTRA>
-3.9947

>  <SCORE.INTRA.DIHEDRAL>
-12.5779

>  <SCORE.INTRA.DIHEDRAL.0>
15.8194

>  <SCORE.INTRA.POLAR>
0

>  <SCORE.INTRA.POLAR.0>
0

>  <SCORE.INTRA.REPUL>
0

>  <SCORE.INTRA.REPUL.0>
0

>  <SCORE.INTRA.SOLV>
2.14214

>  <SCORE.INTRA.SOLV.lig_0>
-71.9159

>  <SCORE.INTRA.VDW>
1.22318

>  <SCORE.INTRA.VDW.0>
-3.53918

>  <SCORE.INTRA.norm>
-0.117491

>  <SCORE.RESTR>
0

>  <SCORE.RESTR.CAVITY>
0

>  <SCORE.RESTR.norm>
0

>  <SCORE.SYSTEM>
0

>  <SCORE.SYSTEM.CONST>
0

>  <SCORE.SYSTEM.DIHEDRAL>
0

>  <SCORE.SYSTEM.SOLV>
0

>  <SCORE.SYSTEM.norm>
0

>  <SCORE.heavy>
34

>  <SCORE.norm>
-0.287844

>  <RMSD>
5.019

$$$$
ligand
 OpenBabel01301917533D
libRbt.so/2013.1/901 2013/11/27
 34 36  0  0  0  0  0  0  0  0999 V2000
   17.4559   26.3118   33.0354 C   0  0  2  0  0  0  0  0  0  0  0  0
   18.3374   26.6367   34.1150 O   0  0  0  0  0  0  0  0  0  0  0  0
   20.3912   30.4028   34.0900 C   0  0  2  0  0  0  0  0  0  0  0  0
   21.4477   31.4184   33.9849 N   0  0  0  0  0  0  0  0  0  0  0  0
   20.1279   30.6133   30.3326 C   0  0  2  0  0  0  0  0  0  0  0  0
   16.0973   25.8052   33.6504 C   0  0  2  0  0  0  0  0  0  0  0  0
   15.4941   26.8355   34.5110 N   0  0  0  0  0  0  0  0  0  0  0  0
   20.8661   29.3238   35.1289 C   0  0  0  0  0  0  0  0  0  0  0  0
   21.5770   31.2420   30.3151 C   0  0  2  0  0  0  0  0  0  0  0  0
   22.4480   30.4944   31.1462 O   0  0  0  0  0  0  0  0  0  0  0  0
   16.3297   24.4966   34.4644 C   0  0  1  0  0  0  0  0  0  0  0  0
   15.0903   24.0300   35.0286 O   0  0  0  0  0  0  0  0  0  0  0  0
   19.7288   28.2501   35.2549 C   0  0  2  0  0  0  0  0  0  0  0  0
   20.1154   27.1862   36.2250 N   0  0  0  0  0  0  0  0  0  0  0  0
   21.4737   32.7279   30.8287 C   0  0  1  0  0  0  0  0  0  0  0  0
   22.8058   33.3638   30.8711 N   0  0  0  0  0  0  0  0  0  0  0  0
   16.9606   23.4429   33.5242 C   0  0  2  0  0  0  0  0  0  0  0  0
   17.1714   22.2277   34.2500 O   0  0  0  0  0  0  0  0  0  0  0  0
   19.4348   27.5886   33.8745 C   0  0  2  0  0  0  0  0  0  0  0  0
   20.5195   33.5268   29.8856 C   0  0  1  0  0  0  0  0  0  0  0  0
   21.0820   33.5337   28.5776 O   0  0  0  0  0  0  0  0  0  0  0  0
   18.3235   24.0228   32.9477 C   0  0  2  0  0  0  0  0  0  0  0  0
   18.0856   25.2836   32.2103 O   0  0  0  0  0  0  0  0  0  0  0  0
   19.0342   28.6907   32.8564 C   0  0  2  0  0  0  0  0  0  0  0  0
   18.8017   28.0639   31.5967 O   0  0  0  0  0  0  0  0  0  0  0  0
   19.1253   32.8216   29.8628 C   0  0  0  0  0  0  0  0  0  0  0  0
   19.2454   31.4024   29.4511 O   0  0  0  0  0  0  0  0  0  0  0  0
   19.0354   23.0323   31.9820 C   0  0  2  0  0  0  0  0  0  0  0  0
   19.7762   22.0764   32.7485 O   0  0  0  0  0  0  0  0  0  0  0  0
   20.1602   29.7369   32.6668 C   0  0  1  0  0  0  0  0  0  0  0  0
   19.6859   30.7360   31.7225 O   0  0  0  0  0  0  0  0  0  0  0  0
   20.0036   23.7342   31.0554 C   0  0  0  0  0  0  0  0  0  0  0  0
   20.3504   34.9801   30.3310 C   0  0  0  0  0  0  0  0  0  0  0  0
   23.0180   33.8591   32.2533 C   0  0  0  0  0  0  0  0  0  0  0  0
  1  2  1  1  0  0  0
  1  6  1  0  0  0  0
  1 23  1  0  0  0  0
  3  4  1  6  0  0  0
  3  8  1  0  0  0  0
  3 30  1  0  0  0  0
  5  9  1  0  0  0  0
  5 27  1  0  0  0  0
  5 31  1  1  0  0  0
  6  7  1  1  0  0  0
  6 11  1  0  0  0  0
  8 13  1  0  0  0  0
  9 10  1  1  0  0  0
  9 15  1  0  0  0  0
 11 12  1  6  0  0  0
 11 17  1  0  0  0  0
 13 14  1  1  0  0  0
 13 19  1  0  0  0  0
 15 16  1  6  0  0  0
 15 20  1  0  0  0  0
 16 34  1  0  0  0  0
 17 18  1  1  0  0  0
 17 22  1  0  0  0  0
 19  2  1  1  0  0  0
 19 24  1  0  0  0  0
 20 21  1  6  0  0  0
 20 26  1  0  0  0  0
 20 33  1  0  0  0  0
 22 23  1  6  0  0  0
 22 28  1  0  0  0  0
 24 25  1  6  0  0  0
 24 30  1  0  0  0  0
 26 27  1  0  0  0  0
 28 29  1  1  0  0  0
 28 32  1  0  0  0  0
 30 31  1  6  0  0  0
M  END
>  <CHROM.1>
-156.73775417,152.82400693,-124.31298386,-82.01845245,145.18880951,-80.91393437
19.39997461,28.44505044,32.46918493,3.03567655,1.19473165,1.35812694

>  <Name>
ligand

>  <RI>
0

>  <Rbt.Current_Directory>
/home/itssahil/PROJECTS/Mol_Feturizer/New_Systems/rnas/4p3s

>  <Rbt.Executable>
rbdock ($Id: //depot/dev/client3/rdock/2013.1/src/exe/rbdock.cxx#4 $)

>  <Rbt.Library>
libRbt.so (2013.1, Build901 2013/11/27)

>  <Rbt.Parameter_File>
/export/apps/rDock/src/rDock_2013.1_src/data/scripts/dock_solv.prm

>  <Rbt.Receptor>
prm/blind_docking_100.prm

>  <SCORE>
8.73918

>  <SCORE.INTER>
1.09307

>  <SCORE.INTER.CONST>
1

>  <SCORE.INTER.POLAR>
0

>  <SCORE.INTER.ROT>
6

>  <SCORE.INTER.SOLV>
23.4234

>  <SCORE.INTER.VDW>
-14.6791

>  <SCORE.INTER.norm>
0.0321492

>  <SCORE.INTRA>
2.23805

>  <SCORE.INTRA.DIHEDRAL>
-1.18386

>  <SCORE.INTRA.DIHEDRAL.0>
15.8194

>  <SCORE.INTRA.POLAR>
0

>  <SCORE.INTRA.POLAR.0>
0

>  <SCORE.INTRA.REPUL>
0

>  <SCORE.INTRA.REPUL.0>
0

>  <SCORE.INTRA.SOLV>
1.26534

>  <SCORE.INTRA.SOLV.lig_0>
-71.9159

>  <SCORE.INTRA.VDW>
2.19731

>  <SCORE.INTRA.VDW.0>
-3.53918

>  <SCORE.INTRA.norm>
0.065825

>  <SCORE.RESTR>
5.40805

>  <SCORE.RESTR.CAVITY>
5.40805

>  <SCORE.RESTR.norm>
0.15906

>  <SCORE.SYSTEM>
0

>  <SCORE.SYSTEM.CONST>
0

>  <SCORE.SYSTEM.DIHEDRAL>
0

>  <SCORE.SYSTEM.SOLV>
0

>  <SCORE.SYSTEM.norm>
0

>  <SCORE.heavy>
34

>  <SCORE.norm>
0.257035

>  <RMSD>
5.278

$$$$
ligand
 OpenBabel01301917533D
libRbt.so/2013.1/901 2013/11/27
 34 36  0  0  0  0  0  0  0  0999 V2000
   17.1131   25.4859   33.0247 C   0  0  2  0  0  0  0  0  0  0  0  0
   17.5906   25.7411   34.3495 O   0  0  0  0  0  0  0  0  0  0  0  0
   16.9662   29.9852   34.3587 C   0  0  2  0  0  0  0  0  0  0  0  0
   16.9464   31.3944   34.7738 N   0  0  0  0  0  0  0  0  0  0  0  0
   20.3922   29.7852   32.6112 C   0  0  2  0  0  0  0  0  0  0  0  0
   16.1199   24.2653   33.0907 C   0  0  2  0  0  0  0  0  0  0  0  0
   14.9940   24.5529   33.9937 N   0  0  0  0  0  0  0  0  0  0  0  0
   16.2598   29.1450   35.4831 C   0  0  0  0  0  0  0  0  0  0  0  0
   21.4257   30.9150   32.9994 C   0  0  2  0  0  0  0  0  0  0  0  0
   21.4976   31.0535   34.4080 O   0  0  0  0  0  0  0  0  0  0  0  0
   16.8718   22.9845   33.5635 C   0  0  1  0  0  0  0  0  0  0  0  0
   15.9675   21.8662   33.6254 O   0  0  0  0  0  0  0  0  0  0  0  0
   16.2643   27.6428   35.0299 C   0  0  2  0  0  0  0  0  0  0  0  0
   15.6117   26.7818   36.0571 N   0  0  0  0  0  0  0  0  0  0  0  0
   20.9478   32.2646   32.3417 C   0  0  1  0  0  0  0  0  0  0  0  0
   21.8555   33.3738   32.6977 N   0  0  0  0  0  0  0  0  0  0  0  0
   18.0422   22.7181   32.5882 C   0  0  2  0  0  0  0  0  0  0  0  0
   18.7394   21.5374   32.9979 O   0  0  0  0  0  0  0  0  0  0  0  0
   17.7207   27.1364   34.8016 C   0  0  2  0  0  0  0  0  0  0  0  0
   20.8923   32.0834   30.7918 C   0  0  1  0  0  0  0  0  0  0  0  0
   22.2051   31.7880   30.3262 O   0  0  0  0  0  0  0  0  0  0  0  0
   18.9986   23.9874   32.5782 C   0  0  2  0  0  0  0  0  0  0  0  0
   18.2569   25.1985   32.1623 O   0  0  0  0  0  0  0  0  0  0  0  0
   18.4095   28.0301   33.7347 C   0  0  2  0  0  0  0  0  0  0  0  0
   19.7477   27.5661   33.5680 O   0  0  0  0  0  0  0  0  0  0  0  0
   19.9287   30.9001   30.4559 C   0  0  0  0  0  0  0  0  0  0  0  0
   20.3457   29.6536   31.1417 O   0  0  0  0  0  0  0  0  0  0  0  0
   20.2108   23.8170   31.6179 C   0  0  2  0  0  0  0  0  0  0  0  0
   19.7431   23.3587   30.3446 O   0  0  0  0  0  0  0  0  0  0  0  0
   18.4717   29.5127   34.1780 C   0  0  1  0  0  0  0  0  0  0  0  0
   19.1051   30.2708   33.1108 O   0  0  0  0  0  0  0  0  0  0  0  0
   21.2117   22.8074   32.1349 C   0  0  0  0  0  0  0  0  0  0  0  0
   20.4157   33.3495   30.0786 C   0  0  0  0  0  0  0  0  0  0  0  0
   21.3415   33.9848   33.9480 C   0  0  0  0  0  0  0  0  0  0  0  0
  1  2  1  1  0  0  0
  1  6  1  0  0  0  0
  1 23  1  0  0  0  0
  3  4  1  1  0  0  0
  3  8  1  0  0  0  0
  3 30  1  0  0  0  0
  5  9  1  0  0  0  0
  5 27  1  0  0  0  0
  5 31  1  6  0  0  0
  6  7  1  1  0  0  0
  6 11  1  0  0  0  0
  8 13  1  0  0  0  0
  9 10  1  1  0  0  0
  9 15  1  0  0  0  0
 11 12  1  6  0  0  0
 11 17  1  0  0  0  0
 13 14  1  1  0  0  0
 13 19  1  0  0  0  0
 15 16  1  6  0  0  0
 15 20  1  0  0  0  0
 16 34  1  0  0  0  0
 17 18  1  1  0  0  0
 17 22  1  0  0  0  0
 19  2  1  6  0  0  0
 19 24  1  0  0  0  0
 20 21  1  6  0  0  0
 20 26  1  0  0  0  0
 20 33  1  0  0  0  0
 22 23  1  6  0  0  0
 22 28  1  0  0  0  0
 24 25  1  1  0  0  0
 24 30  1  0  0  0  0
 26 27  1  0  0  0  0
 28 29  1  6  0  0  0
 28 32  1  0  0  0  0
 30 31  1  6  0  0  0
M  END
>  <CHROM.1>
-138.91800661,72.84538319,-89.95636979,48.82944157,-167.32322480,-114.82183028
18.87828612,27.76993741,33.00552160,2.01946940,-0.68331228,-2.93807983

>  <Name>
ligand

>  <RI>
0

>  <Rbt.Current_Directory>
/home/itssahil/PROJECTS/Mol_Feturizer/New_Systems/rnas/4p3s

>  <Rbt.Executable>
rbdock ($Id: //depot/dev/client3/rdock/2013.1/src/exe/rbdock.cxx#4 $)

>  <Rbt.Library>
libRbt.so (2013.1, Build901 2013/11/27)

>  <Rbt.Parameter_File>
/export/apps/rDock/src/rDock_2013.1_src/data/scripts/dock_solv.prm

>  <Rbt.Receptor>
prm/blind_docking_60.prm

>  <SCORE>
10.973

>  <SCORE.INTER>
-5.7073

>  <SCORE.INTER.CONST>
1

>  <SCORE.INTER.POLAR>
0

>  <SCORE.INTER.ROT>
6

>  <SCORE.INTER.SOLV>
18.4657

>  <SCORE.INTER.VDW>
-17.5601

>  <SCORE.INTER.norm>
-0.167862

>  <SCORE.INTRA>
4.09785

>  <SCORE.INTRA.DIHEDRAL>
-0.554639

>  <SCORE.INTRA.DIHEDRAL.0>
15.8194

>  <SCORE.INTRA.POLAR>
0

>  <SCORE.INTRA.POLAR.0>
0

>  <SCORE.INTRA.REPUL>
0

>  <SCORE.INTRA.REPUL.0>
0

>  <SCORE.INTRA.SOLV>
1.14207

>  <SCORE.INTRA.SOLV.lig_0>
-71.9159

>  <SCORE.INTRA.VDW>
3.80413

>  <SCORE.INTRA.VDW.0>
-3.53918

>  <SCORE.INTRA.norm>
0.120525

>  <SCORE.RESTR>
12.5825

>  <SCORE.RESTR.CAVITY>
12.5825

>  <SCORE.RESTR.norm>
0.370072

>  <SCORE.SYSTEM>
0

>  <SCORE.SYSTEM.CONST>
0

>  <SCORE.SYSTEM.DIHEDRAL>
0

>  <SCORE.SYSTEM.SOLV>
0

>  <SCORE.SYSTEM.norm>
0

>  <SCORE.heavy>
34

>  <SCORE.norm>
0.322735

>  <RMSD>
5.296

$$$$
ligand
 OpenBabel01301917533D
libRbt.so/2013.1/901 2013/11/27
 34 36  0  0  0  0  0  0  0  0999 V2000
   17.2095   24.6451   32.6257 C   0  0  2  0  0  0  0  0  0  0  0  0
   17.4385   25.3798   33.8323 O   0  0  0  0  0  0  0  0  0  0  0  0
   20.1659   28.3384   35.3192 C   0  0  2  0  0  0  0  0  0  0  0  0
   21.4015   29.0688   35.6325 N   0  0  0  0  0  0  0  0  0  0  0  0
   20.9480   30.5071   33.0337 C   0  0  2  0  0  0  0  0  0  0  0  0
   16.0286   23.6358   32.8857 C   0  0  2  0  0  0  0  0  0  0  0  0
   14.8068   24.3502   33.2893 N   0  0  0  0  0  0  0  0  0  0  0  0
   20.3331   26.8672   35.8453 C   0  0  0  0  0  0  0  0  0  0  0  0
   20.4148   31.9844   32.8637 C   0  0  2  0  0  0  0  0  0  0  0  0
   19.7960   32.4250   34.0601 O   0  0  0  0  0  0  0  0  0  0  0  0
   16.4331   22.6050   33.9824 C   0  0  1  0  0  0  0  0  0  0  0  0
   15.3563   21.6804   34.2234 O   0  0  0  0  0  0  0  0  0  0  0  0
   19.0056   26.0933   35.5275 C   0  0  2  0  0  0  0  0  0  0  0  0
   19.0954   24.6809   35.9959 N   0  0  0  0  0  0  0  0  0  0  0  0
   19.3796   31.9990   31.6761 C   0  0  1  0  0  0  0  0  0  0  0  0
   18.8138   33.3500   31.4878 N   0  0  0  0  0  0  0  0  0  0  0  0
   17.7164   21.8771   33.5181 C   0  0  2  0  0  0  0  0  0  0  0  0
   18.0987   20.9160   34.5070 O   0  0  0  0  0  0  0  0  0  0  0  0
   18.7139   26.0972   33.9964 C   0  0  2  0  0  0  0  0  0  0  0  0
   20.0945   31.5223   30.3723 C   0  0  1  0  0  0  0  0  0  0  0  0
   21.1442   32.4372   30.0747 O   0  0  0  0  0  0  0  0  0  0  0  0
   18.8587   22.9563   33.2802 C   0  0  2  0  0  0  0  0  0  0  0  0
   18.4401   23.9461   32.2628 O   0  0  0  0  0  0  0  0  0  0  0  0
   18.6219   27.5654   33.4989 C   0  0  2  0  0  0  0  0  0  0  0  0
   18.3863   27.5407   32.0927 O   0  0  0  0  0  0  0  0  0  0  0  0
   20.6834   30.0950   30.6123 C   0  0  0  0  0  0  0  0  0  0  0  0
   21.5973   30.0779   31.7795 O   0  0  0  0  0  0  0  0  0  0  0  0
   20.1956   22.3189   32.8040 C   0  0  2  0  0  0  0  0  0  0  0  0
   20.7415   21.5225   33.8613 O   0  0  0  0  0  0  0  0  0  0  0  0
   19.9387   28.3417   33.7473 C   0  0  1  0  0  0  0  0  0  0  0  0
   19.7486   29.7042   33.2762 O   0  0  0  0  0  0  0  0  0  0  0  0
   21.2251   23.3627   32.4308 C   0  0  0  0  0  0  0  0  0  0  0  0
   19.1468   31.4895   29.1724 C   0  0  0  0  0  0  0  0  0  0  0  0
   17.5963   33.4434   32.3303 C   0  0  0  0  0  0  0  0  0  0  0  0
  1  2  1  1  0  0  0
  1  6  1  0  0  0  0
  1 23  1  0  0  0  0
  3  4  1  6  0  0  0
  3  8  1  0  0  0  0
  3 30  1  0  0  0  0
  5  9  1  0  0  0  0
  5 27  1  0  0  0  0
  5 31  1  6  0  0  0
  6  7  1  1  0  0  0
  6 11  1  0  0  0  0
  8 13  1  0  0  0  0
  9 10  1  1  0  0  0
  9 15  1  0  0  0  0
 11 12  1  6  0  0  0
 11 17  1  0  0  0  0
 13 14  1  6  0  0  0
 13 19  1  0  0  0  0
 15 16  1  6  0  0  0
 15 20  1  0  0  0  0
 16 34  1  0  0  0  0
 17 18  1  1  0  0  0
 17 22  1  0  0  0  0
 19  2  1  1  0  0  0
 19 24  1  0  0  0  0
 20 21  1  6  0  0  0
 20 26  1  0  0  0  0
 20 33  1  0  0  0  0
 22 23  1  6  0  0  0
 22 28  1  0  0  0  0
 24 25  1  6  0  0  0
 24 30  1  0  0  0  0
 26 27  1  0  0  0  0
 28 29  1  1  0  0  0
 28 32  1  0  0  0  0
 30 31  1  1  0  0  0
M  END
>  <CHROM.1>
162.38631464,-149.47982601,-90.31700300,-66.95298073,82.47657052,-167.50364815
19.05120049,27.13718369,33.09909204,1.80644162,0.46198039,2.82486355

>  <Name>
ligand

>  <RI>
0

>  <Rbt.Current_Directory>
/home/itssahil/PROJECTS/Mol_Feturizer/New_Systems/rnas/4p3s

>  <Rbt.Executable>
rbdock ($Id: //depot/dev/client3/rdock/2013.1/src/exe/rbdock.cxx#4 $)

>  <Rbt.Library>
libRbt.so (2013.1, Build901 2013/11/27)

>  <Rbt.Parameter_File>
/export/apps/rDock/src/rDock_2013.1_src/data/scripts/dock_solv.prm

>  <Rbt.Receptor>
prm/blind_docking_100.prm

>  <SCORE>
9.01267

>  <SCORE.INTER>
3.38658

>  <SCORE.INTER.CONST>
1

>  <SCORE.INTER.POLAR>
0

>  <SCORE.INTER.ROT>
6

>  <SCORE.INTER.SOLV>
24.2129

>  <SCORE.INTER.VDW>
-13.4132

>  <SCORE.INTER.norm>
0.0996051

>  <SCORE.INTRA>
-2.49183

>  <SCORE.INTRA.DIHEDRAL>
-6.89587

>  <SCORE.INTRA.DIHEDRAL.0>
15.8194

>  <SCORE.INTRA.POLAR>
0

>  <SCORE.INTRA.POLAR.0>
0

>  <SCORE.INTRA.REPUL>
0

>  <SCORE.INTRA.REPUL.0>
0

>  <SCORE.INTRA.SOLV>
1.59433

>  <SCORE.INTRA.SOLV.lig_0>
-71.9159

>  <SCORE.INTRA.VDW>
0.158936

>  <SCORE.INTRA.VDW.0>
-3.53918

>  <SCORE.INTRA.norm>
-0.0732893

>  <SCORE.RESTR>
8.11793

>  <SCORE.RESTR.CAVITY>
8.11793

>  <SCORE.RESTR.norm>
0.238763

>  <SCORE.SYSTEM>
0

>  <SCORE.SYSTEM.CONST>
0

>  <SCORE.SYSTEM.DIHEDRAL>
0

>  <SCORE.SYSTEM.SOLV>
0

>  <SCORE.SYSTEM.norm>
0

>  <SCORE.heavy>
34

>  <SCORE.norm>
0.265078

>  <RMSD>
5.354

$$$$
ligand
 OpenBabel01301917533D
libRbt.so/2013.1/901 2013/11/27
 34 36  0  0  0  0  0  0  0  0999 V2000
   18.8960   29.4850   37.2164 C   0  0  2  0  0  0  0  0  0  0  0  0
   19.9101   29.9604   36.3254 O   0  0  0  0  0  0  0  0  0  0  0  0
   23.8057   31.5534   37.1549 C   0  0  2  0  0  0  0  0  0  0  0  0
   24.8896   32.4698   37.5345 N   0  0  0  0  0  0  0  0  0  0  0  0
   24.7090   31.3582   40.1381 C   0  0  2  0  0  0  0  0  0  0  0  0
   18.0047   28.4493   36.4331 C   0  0  2  0  0  0  0  0  0  0  0  0
   18.8172   27.3267   35.9373 N   0  0  0  0  0  0  0  0  0  0  0  0
   22.9601   32.2523   36.0299 C   0  0  0  0  0  0  0  0  0  0  0  0
   25.3580   30.3468   41.1634 C   0  0  2  0  0  0  0  0  0  0  0  0
   25.9769   29.2750   40.4728 O   0  0  0  0  0  0  0  0  0  0  0  0
   17.2809   29.1520   35.2451 C   0  0  1  0  0  0  0  0  0  0  0  0
   16.4651   28.2087   34.5261 O   0  0  0  0  0  0  0  0  0  0  0  0
   21.8145   31.2649   35.6116 C   0  0  2  0  0  0  0  0  0  0  0  0
   20.9640   31.8677   34.5460 N   0  0  0  0  0  0  0  0  0  0  0  0
   24.2180   29.8036   42.1055 C   0  0  1  0  0  0  0  0  0  0  0  0
   24.7547   28.8210   43.0685 N   0  0  0  0  0  0  0  0  0  0  0  0
   16.4389   30.3203   35.8093 C   0  0  2  0  0  0  0  0  0  0  0  0
   15.7554   30.9725   34.7344 O   0  0  0  0  0  0  0  0  0  0  0  0
   20.9136   30.9107   36.8332 C   0  0  2  0  0  0  0  0  0  0  0  0
   23.5666   31.0051   42.8607 C   0  0  1  0  0  0  0  0  0  0  0  0
   24.5651   31.6265   43.6633 O   0  0  0  0  0  0  0  0  0  0  0  0
   17.4040   31.3206   36.5801 C   0  0  2  0  0  0  0  0  0  0  0  0
   18.1086   30.6250   37.6800 O   0  0  0  0  0  0  0  0  0  0  0  0
   21.7925   30.2848   37.9500 C   0  0  2  0  0  0  0  0  0  0  0  0
   20.9512   29.9997   39.0657 O   0  0  0  0  0  0  0  0  0  0  0  0
   23.0167   32.0231   41.8105 C   0  0  0  0  0  0  0  0  0  0  0  0
   24.0830   32.4689   40.8818 O   0  0  0  0  0  0  0  0  0  0  0  0
   16.6456   32.5338   37.1912 C   0  0  2  0  0  0  0  0  0  0  0  0
   15.9821   33.2511   36.1446 O   0  0  0  0  0  0  0  0  0  0  0  0
   22.8997   31.2577   38.4254 C   0  0  1  0  0  0  0  0  0  0  0  0
   23.6821   30.5784   39.4456 O   0  0  0  0  0  0  0  0  0  0  0  0
   17.5784   33.4958   37.8934 C   0  0  0  0  0  0  0  0  0  0  0  0
   22.4321   30.5603   43.7847 C   0  0  0  0  0  0  0  0  0  0  0  0
   24.3454   27.4732   42.6030 C   0  0  0  0  0  0  0  0  0  0  0  0
  1  2  1  6  0  0  0
  1  6  1  0  0  0  0
  1 23  1  0  0  0  0
  3  4  1  1  0  0  0
  3  8  1  0  0  0  0
  3 30  1  0  0  0  0
  5  9  1  0  0  0  0
  5 27  1  0  0  0  0
  5 31  1  1  0  0  0
  6  7  1  6  0  0  0
  6 11  1  0  0  0  0
  8 13  1  0  0  0  0
  9 10  1  6  0  0  0
  9 15  1  0  0  0  0
 11 12  1  1  0  0  0
 11 17  1  0  0  0  0
 13 14  1  6  0  0  0
 13 19  1  0  0  0  0
 15 16  1  1  0  0  0
 15 20  1  0  0  0  0
 16 34  1  0  0  0  0
 17 18  1  6  0  0  0
 17 22  1  0  0  0  0
 19  2  1  6  0  0  0
 19 24  1  0  0  0  0
 20 21  1  1  0  0  0
 20 26  1  0  0  0  0
 20 33  1  0  0  0  0
 22 23  1  1  0  0  0
 22 28  1  0  0  0  0
 24 25  1  1  0  0  0
 24 30  1  0  0  0  0
 26 27  1  0  0  0  0
 28 29  1  6  0  0  0
 28 32  1  0  0  0  0
 30 31  1  1  0  0  0
M  END
>  <CHROM.1>
-177.75362597,-177.65496195,-104.18907842,-59.09342271,70.52513910,179.85117081
21.12605240,30.65770953,38.45314850,2.49668412,-0.28569369,-1.19294731

>  <Name>
ligand

>  <RI>
0

>  <Rbt.Current_Directory>
/home/itssahil/PROJECTS/Mol_Feturizer/New_Systems/rnas/4p3s

>  <Rbt.Executable>
rbdock ($Id: //depot/dev/client3/rdock/2013.1/src/exe/rbdock.cxx#4 $)

>  <Rbt.Library>
libRbt.so (2013.1, Build901 2013/11/27)

>  <Rbt.Parameter_File>
/export/apps/rDock/src/rDock_2013.1_src/data/scripts/dock_solv.prm

>  <Rbt.Receptor>
prm/pocket_docking_8.prm

>  <SCORE>
-6.43056

>  <SCORE.INTER>
0.396378

>  <SCORE.INTER.CONST>
1

>  <SCORE.INTER.POLAR>
0

>  <SCORE.INTER.ROT>
6

>  <SCORE.INTER.SOLV>
12.0243

>  <SCORE.INTER.VDW>
-11.3438

>  <SCORE.INTER.norm>
0.0116582

>  <SCORE.INTRA>
-6.82694

>  <SCORE.INTRA.DIHEDRAL>
-14.1157

>  <SCORE.INTRA.DIHEDRAL.0>
15.8194

>  <SCORE.INTRA.POLAR>
0

>  <SCORE.INTRA.POLAR.0>
0

>  <SCORE.INTRA.REPUL>
0

>  <SCORE.INTRA.REPUL.0>
0

>  <SCORE.INTRA.SOLV>
-0.75066

>  <SCORE.INTRA.SOLV.lig_0>
-71.9159

>  <SCORE.INTRA.VDW>
0.606224

>  <SCORE.INTRA.VDW.0>
-3.53918

>  <SCORE.INTRA.norm>
-0.200792

>  <SCORE.RESTR>
0

>  <SCORE.RESTR.CAVITY>
0

>  <SCORE.RESTR.norm>
0

>  <SCORE.SYSTEM>
0

>  <SCORE.SYSTEM.CONST>
0

>  <SCORE.SYSTEM.DIHEDRAL>
0

>  <SCORE.SYSTEM.SOLV>
0

>  <SCORE.SYSTEM.norm>
0

>  <SCORE.heavy>
34

>  <SCORE.norm>
-0.189134

>  <RMSD>
5.533

$$$$
ligand
 OpenBabel01301917533D
libRbt.so/2013.1/901 2013/11/27
 34 36  0  0  0  0  0  0  0  0999 V2000
   17.5797   26.3045   32.7378 C   0  0  2  0  0  0  0  0  0  0  0  0
   18.2319   26.8807   33.8740 O   0  0  0  0  0  0  0  0  0  0  0  0
   17.6867   30.9926   32.7800 C   0  0  2  0  0  0  0  0  0  0  0  0
   17.7297   32.4611   32.7963 N   0  0  0  0  0  0  0  0  0  0  0  0
   21.0776   30.4307   31.0164 C   0  0  2  0  0  0  0  0  0  0  0  0
   16.4443   25.3463   33.2608 C   0  0  2  0  0  0  0  0  0  0  0  0
   15.4752   26.0833   34.0877 N   0  0  0  0  0  0  0  0  0  0  0  0
   17.0701   30.5166   34.1447 C   0  0  0  0  0  0  0  0  0  0  0  0
   21.9916   31.5204   31.7038 C   0  0  2  0  0  0  0  0  0  0  0  0
   21.8112   31.4985   33.1093 O   0  0  0  0  0  0  0  0  0  0  0  0
   17.0641   24.1738   34.0793 C   0  0  1  0  0  0  0  0  0  0  0  0
   16.0296   23.2954   34.5595 O   0  0  0  0  0  0  0  0  0  0  0  0
   17.0068   28.9489   34.1183 C   0  0  2  0  0  0  0  0  0  0  0  0
   16.4346   28.4245   35.3911 N   0  0  0  0  0  0  0  0  0  0  0  0
   21.5948   32.9306   31.1241 C   0  0  1  0  0  0  0  0  0  0  0  0
   22.3912   34.0021   31.7554 N   0  0  0  0  0  0  0  0  0  0  0  0
   18.0718   23.4267   33.1746 C   0  0  2  0  0  0  0  0  0  0  0  0
   18.6444   22.3368   33.9042 O   0  0  0  0  0  0  0  0  0  0  0  0
   18.4272   28.3395   33.9173 C   0  0  2  0  0  0  0  0  0  0  0  0
   21.8174   32.9261   29.5786 C   0  0  1  0  0  0  0  0  0  0  0  0
   23.2000   32.7002   29.3240 O   0  0  0  0  0  0  0  0  0  0  0  0
   19.1839   24.4539   32.6907 C   0  0  2  0  0  0  0  0  0  0  0  0
   18.5709   25.5777   31.9480 O   0  0  0  0  0  0  0  0  0  0  0  0
   19.0324   28.8833   32.5946 C   0  0  2  0  0  0  0  0  0  0  0  0
   20.3415   28.3361   32.4507 O   0  0  0  0  0  0  0  0  0  0  0  0
   20.9647   31.7782   28.9489 C   0  0  0  0  0  0  0  0  0  0  0  0
   21.2935   30.4664   29.5566 O   0  0  0  0  0  0  0  0  0  0  0  0
   20.2473   23.7946   31.7661 C   0  0  2  0  0  0  0  0  0  0  0  0
   19.5832   23.0792   30.7186 O   0  0  0  0  0  0  0  0  0  0  0  0
   19.1609   30.4265   32.6112 C   0  0  1  0  0  0  0  0  0  0  0  0
   19.7084   30.8420   31.3297 O   0  0  0  0  0  0  0  0  0  0  0  0
   21.1247   22.8143   32.5130 C   0  0  0  0  0  0  0  0  0  0  0  0
   21.4341   34.2598   28.9356 C   0  0  0  0  0  0  0  0  0  0  0  0
   21.4807   34.7707   32.6390 C   0  0  0  0  0  0  0  0  0  0  0  0
  1  2  1  1  0  0  0
  1  6  1  0  0  0  0
  1 23  1  0  0  0  0
  3  4  1  1  0  0  0
  3  8  1  0  0  0  0
  3 30  1  0  0  0  0
  5  9  1  0  0  0  0
  5 27  1  0  0  0  0
  5 31  1  6  0  0  0
  6  7  1  1  0  0  0
  6 11  1  0  0  0  0
  8 13  1  0  0  0  0
  9 10  1  1  0  0  0
  9 15  1  0  0  0  0
 11 12  1  6  0  0  0
 11 17  1  0  0  0  0
 13 14  1  1  0  0  0
 13 19  1  0  0  0  0
 15 16  1  1  0  0  0
 15 20  1  0  0  0  0
 16 34  1  0  0  0  0
 17 18  1  1  0  0  0
 17 22  1  0  0  0  0
 19  2  1  6  0  0  0
 19 24  1  0  0  0  0
 20 21  1  6  0  0  0
 20 26  1  0  0  0  0
 20 33  1  0  0  0  0
 22 23  1  6  0  0  0
 22 28  1  0  0  0  0
 24 25  1  1  0  0  0
 24 30  1  0  0  0  0
 26 27  1  0  0  0  0
 28 29  1  6  0  0  0
 28 32  1  0  0  0  0
 30 31  1  6  0  0  0
M  END
>  <CHROM.1>
-130.33880977,70.18014956,-109.15123879,50.71172809,178.76049286,-84.27621697
19.38178148,28.58923970,32.31227193,2.04559859,-0.67148035,-3.11003394

>  <Name>
ligand

>  <RI>
0

>  <Rbt.Current_Directory>
/home/itssahil/PROJECTS/Mol_Feturizer/New_Systems/rnas/4p3s

>  <Rbt.Executable>
rbdock ($Id: //depot/dev/client3/rdock/2013.1/src/exe/rbdock.cxx#4 $)

>  <Rbt.Library>
libRbt.so (2013.1, Build901 2013/11/27)

>  <Rbt.Parameter_File>
/export/apps/rDock/src/rDock_2013.1_src/data/scripts/dock_solv.prm

>  <Rbt.Receptor>
prm/blind_docking_100.prm

>  <SCORE>
20.7287

>  <SCORE.INTER>
15.5204

>  <SCORE.INTER.CONST>
1

>  <SCORE.INTER.POLAR>
0

>  <SCORE.INTER.ROT>
6

>  <SCORE.INTER.SOLV>
22.8021

>  <SCORE.INTER.VDW>
-4.85378

>  <SCORE.INTER.norm>
0.456481

>  <SCORE.INTRA>
0.745563

>  <SCORE.INTRA.DIHEDRAL>
-4.59574

>  <SCORE.INTRA.DIHEDRAL.0>
15.8194

>  <SCORE.INTRA.POLAR>
0

>  <SCORE.INTRA.POLAR.0>
0

>  <SCORE.INTRA.REPUL>
0

>  <SCORE.INTRA.REPUL.0>
0

>  <SCORE.INTRA.SOLV>
2.53733

>  <SCORE.INTRA.SOLV.lig_0>
-71.9159

>  <SCORE.INTRA.VDW>
1.77477

>  <SCORE.INTRA.VDW.0>
-3.53918

>  <SCORE.INTRA.norm>
0.0219283

>  <SCORE.RESTR>
4.4628

>  <SCORE.RESTR.CAVITY>
4.4628

>  <SCORE.RESTR.norm>
0.131259

>  <SCORE.SYSTEM>
0

>  <SCORE.SYSTEM.CONST>
0

>  <SCORE.SYSTEM.DIHEDRAL>
0

>  <SCORE.SYSTEM.SOLV>
0

>  <SCORE.SYSTEM.norm>
0

>  <SCORE.heavy>
34

>  <SCORE.norm>
0.609669

>  <RMSD>
5.641

$$$$
ligand
 OpenBabel01301917533D
libRbt.so/2013.1/901 2013/11/27
 34 36  0  0  0  0  0  0  0  0999 V2000
   20.2959   28.5333   39.6361 C   0  0  2  0  0  0  0  0  0  0  0  0
   20.6898   29.4076   40.6986 O   0  0  0  0  0  0  0  0  0  0  0  0
   22.9364   33.0613   40.6301 C   0  0  2  0  0  0  0  0  0  0  0  0
   24.0508   34.0161   40.5586 N   0  0  0  0  0  0  0  0  0  0  0  0
   23.5594   33.9958   37.5580 C   0  0  2  0  0  0  0  0  0  0  0  0
   19.0828   27.6658   40.1424 C   0  0  2  0  0  0  0  0  0  0  0  0
   17.9558   28.5230   40.5439 N   0  0  0  0  0  0  0  0  0  0  0  0
   23.2621   32.0301   41.7702 C   0  0  0  0  0  0  0  0  0  0  0  0
   22.8591   35.0249   36.5854 C   0  0  2  0  0  0  0  0  0  0  0  0
   22.0702   35.9417   37.3241 O   0  0  0  0  0  0  0  0  0  0  0  0
   19.5247   26.7679   41.3372 C   0  0  1  0  0  0  0  0  0  0  0  0
   18.4187   25.9732   41.8034 O   0  0  0  0  0  0  0  0  0  0  0  0
   22.0624   31.0226   41.8587 C   0  0  2  0  0  0  0  0  0  0  0  0
   22.3068   30.0062   42.9216 N   0  0  0  0  0  0  0  0  0  0  0  0
   21.9566   34.2142   35.5801 C   0  0  1  0  0  0  0  0  0  0  0  0
   21.2424   35.1246   34.6625 N   0  0  0  0  0  0  0  0  0  0  0  0
   20.7059   25.8842   40.8725 C   0  0  2  0  0  0  0  0  0  0  0  0
   21.1197   25.0419   41.9529 O   0  0  0  0  0  0  0  0  0  0  0  0
   21.8531   30.2882   40.4999 C   0  0  2  0  0  0  0  0  0  0  0  0
   22.8560   33.2247   34.7737 C   0  0  1  0  0  0  0  0  0  0  0  0
   23.8028   33.9831   34.0282 O   0  0  0  0  0  0  0  0  0  0  0  0
   21.8874   26.8268   40.3811 C   0  0  2  0  0  0  0  0  0  0  0  0
   21.4366   27.6963   39.2717 O   0  0  0  0  0  0  0  0  0  0  0  0
   21.6008   31.3402   39.3858 C   0  0  2  0  0  0  0  0  0  0  0  0
   21.4442   30.6453   38.1504 O   0  0  0  0  0  0  0  0  0  0  0  0
   23.5975   32.2841   35.7771 C   0  0  0  0  0  0  0  0  0  0  0  0
   24.3828   33.0616   36.7655 O   0  0  0  0  0  0  0  0  0  0  0  0
   23.1266   26.0265   39.8867 C   0  0  2  0  0  0  0  0  0  0  0  0
   23.6828   25.2931   40.9835 O   0  0  0  0  0  0  0  0  0  0  0  0
   22.7932   32.3167   39.2346 C   0  0  1  0  0  0  0  0  0  0  0  0
   22.4559   33.2743   38.1935 O   0  0  0  0  0  0  0  0  0  0  0  0
   24.2083   26.9302   39.3373 C   0  0  0  0  0  0  0  0  0  0  0  0
   22.0472   32.3829   33.7857 C   0  0  0  0  0  0  0  0  0  0  0  0
   19.8208   35.1564   35.0853 C   0  0  0  0  0  0  0  0  0  0  0  0
  1  2  1  1  0  0  0
  1  6  1  0  0  0  0
  1 23  1  0  0  0  0
  3  4  1  6  0  0  0
  3  8  1  0  0  0  0
  3 30  1  0  0  0  0
  5  9  1  0  0  0  0
  5 27  1  0  0  0  0
  5 31  1  6  0  0  0
  6  7  1  1  0  0  0
  6 11  1  0  0  0  0
  8 13  1  0  0  0  0
  9 10  1  1  0  0  0
  9 15  1  0  0  0  0
 11 12  1  6  0  0  0
 11 17  1  0  0  0  0
 13 14  1  1  0  0  0
 13 19  1  0  0  0  0
 15 16  1  6  0  0  0
 15 20  1  0  0  0  0
 16 34  1  0  0  0  0
 17 18  1  1  0  0  0
 17 22  1  0  0  0  0
 19  2  1  1  0  0  0
 19 24  1  0  0  0  0
 20 21  1  6  0  0  0
 20 26  1  0  0  0  0
 20 33  1  0  0  0  0
 22 23  1  6  0  0  0
 22 28  1  0  0  0  0
 24 25  1  6  0  0  0
 24 30  1  0  0  0  0
 26 27  1  0  0  0  0
 28 29  1  1  0  0  0
 28 32  1  0  0  0  0
 30 31  1  6  0  0  0
M  END
>  <CHROM.1>
177.22779834,-176.32052133,-106.23649798,-64.23176752,84.85922933,-175.26236236
21.91822931,30.65695204,38.86324170,1.97972112,1.13244466,2.17054954

>  <Name>
ligand

>  <RI>
0

>  <Rbt.Current_Directory>
/home/itssahil/PROJECTS/Mol_Feturizer/New_Systems/rnas/4p3s

>  <Rbt.Executable>
rbdock ($Id: //depot/dev/client3/rdock/2013.1/src/exe/rbdock.cxx#4 $)

>  <Rbt.Library>
libRbt.so (2013.1, Build901 2013/11/27)

>  <Rbt.Parameter_File>
/export/apps/rDock/src/rDock_2013.1_src/data/scripts/dock_solv.prm

>  <Rbt.Receptor>
prm/pocket_docking_7.prm

>  <SCORE>
-12.3275

>  <SCORE.INTER>
-6.09331

>  <SCORE.INTER.CONST>
1

>  <SCORE.INTER.POLAR>
0

>  <SCORE.INTER.ROT>
6

>  <SCORE.INTER.SOLV>
12.9598

>  <SCORE.INTER.VDW>
-15.9821

>  <SCORE.INTER.norm>
-0.179215

>  <SCORE.INTRA>
-6.2342

>  <SCORE.INTRA.DIHEDRAL>
-11.7859

>  <SCORE.INTRA.DIHEDRAL.0>
15.8194

>  <SCORE.INTRA.POLAR>
0

>  <SCORE.INTRA.POLAR.0>
0

>  <SCORE.INTRA.REPUL>
0

>  <SCORE.INTRA.REPUL.0>
0

>  <SCORE.INTRA.SOLV>
-1.04457

>  <SCORE.INTRA.SOLV.lig_0>
-71.9159

>  <SCORE.INTRA.VDW>
0.181048

>  <SCORE.INTRA.VDW.0>
-3.53918

>  <SCORE.INTRA.norm>
-0.183359

>  <SCORE.RESTR>
0

>  <SCORE.RESTR.CAVITY>
0

>  <SCORE.RESTR.norm>
0

>  <SCORE.SYSTEM>
0

>  <SCORE.SYSTEM.CONST>
0

>  <SCORE.SYSTEM.DIHEDRAL>
0

>  <SCORE.SYSTEM.SOLV>
0

>  <SCORE.SYSTEM.norm>
0

>  <SCORE.heavy>
34

>  <SCORE.norm>
-0.362574

>  <RMSD>
5.643

$$$$
ligand
 OpenBabel01301917533D
libRbt.so/2013.1/901 2013/11/27
 34 36  0  0  0  0  0  0  0  0999 V2000
   21.4958   28.5373   37.2686 C   0  0  2  0  0  0  0  0  0  0  0  0
   21.8649   29.6939   38.0264 O   0  0  0  0  0  0  0  0  0  0  0  0
   23.4805   33.5088   36.9137 C   0  0  2  0  0  0  0  0  0  0  0  0
   24.4019   34.5560   36.4520 N   0  0  0  0  0  0  0  0  0  0  0  0
   22.5358   32.6496   33.3036 C   0  0  2  0  0  0  0  0  0  0  0  0
   19.9884   28.2076   37.5844 C   0  0  2  0  0  0  0  0  0  0  0  0
   19.1192   29.3440   37.2393 N   0  0  0  0  0  0  0  0  0  0  0  0
   24.1822   32.7384   38.0897 C   0  0  0  0  0  0  0  0  0  0  0  0
   22.3541   33.8762   32.3249 C   0  0  2  0  0  0  0  0  0  0  0  0
   23.4285   34.7883   32.4742 O   0  0  0  0  0  0  0  0  0  0  0  0
   19.8211   27.8436   39.0905 C   0  0  1  0  0  0  0  0  0  0  0  0
   18.4444   27.5417   39.3836 O   0  0  0  0  0  0  0  0  0  0  0  0
   23.1897   31.6330   38.5949 C   0  0  2  0  0  0  0  0  0  0  0  0
   23.7949   30.8542   39.7128 N   0  0  0  0  0  0  0  0  0  0  0  0
   20.9877   34.5808   32.6694 C   0  0  1  0  0  0  0  0  0  0  0  0
   20.7739   35.7628   31.8102 N   0  0  0  0  0  0  0  0  0  0  0  0
   20.7475   26.6467   39.4088 C   0  0  2  0  0  0  0  0  0  0  0  0
   20.5999   26.2880   40.7863 O   0  0  0  0  0  0  0  0  0  0  0  0
   22.8186   30.6517   37.4422 C   0  0  2  0  0  0  0  0  0  0  0  0
   19.8252   33.5552   32.4823 C   0  0  1  0  0  0  0  0  0  0  0  0
   19.7987   33.1493   31.1178 O   0  0  0  0  0  0  0  0  0  0  0  0
   22.2455   27.0550   39.0689 C   0  0  2  0  0  0  0  0  0  0  0  0
   22.3747   27.4321   37.6437 O   0  0  0  0  0  0  0  0  0  0  0  0
   22.1901   31.4553   36.2714 C   0  0  2  0  0  0  0  0  0  0  0  0
   21.8893   30.5403   35.2197 O   0  0  0  0  0  0  0  0  0  0  0  0
   20.0895   32.3193   33.4012 C   0  0  0  0  0  0  0  0  0  0  0  0
   21.4118   31.7107   33.1195 O   0  0  0  0  0  0  0  0  0  0  0  0
   23.2583   25.9087   39.3528 C   0  0  2  0  0  0  0  0  0  0  0  0
   23.1285   25.4915   40.7164 O   0  0  0  0  0  0  0  0  0  0  0  0
   23.1674   32.5186   35.7122 C   0  0  1  0  0  0  0  0  0  0  0  0
   22.4855   33.2332   34.6449 O   0  0  0  0  0  0  0  0  0  0  0  0
   24.6905   26.3450   39.1359 C   0  0  0  0  0  0  0  0  0  0  0  0
   18.4613   34.1600   32.8182 C   0  0  0  0  0  0  0  0  0  0  0  0
   20.7773   36.9577   32.6894 C   0  0  0  0  0  0  0  0  0  0  0  0
  1  2  1  1  0  0  0
  1  6  1  0  0  0  0
  1 23  1  0  0  0  0
  3  4  1  6  0  0  0
  3  8  1  0  0  0  0
  3 30  1  0  0  0  0
  5  9  1  0  0  0  0
  5 27  1  0  0  0  0
  5 31  1  1  0  0  0
  6  7  1  1  0  0  0
  6 11  1  0  0  0  0
  8 13  1  0  0  0  0
  9 10  1  1  0  0  0
  9 15  1  0  0  0  0
 11 12  1  6  0  0  0
 11 17  1  0  0  0  0
 13 14  1  1  0  0  0
 13 19  1  0  0  0  0
 15 16  1  6  0  0  0
 15 20  1  0  0  0  0
 16 34  1  0  0  0  0
 17 18  1  1  0  0  0
 17 22  1  0  0  0  0
 19  2  1  1  0  0  0
 19 24  1  0  0  0  0
 20 21  1  6  0  0  0
 20 26  1  0  0  0  0
 20 33  1  0  0  0  0
 22 23  1  6  0  0  0
 22 28  1  0  0  0  0
 24 25  1  6  0  0  0
 24 30  1  0  0  0  0
 26 27  1  0  0  0  0
 28 29  1  1  0  0  0
 28 32  1  0  0  0  0
 30 31  1  6  0  0  0
M  END
>  <CHROM.1>
-145.46994000,-170.36880816,-115.30470445,-55.70508953,158.81923746,-154.23622503
21.74822470,30.90411325,36.22868826,1.50456309,0.48912672,2.43455733

>  <Name>
ligand

>  <RI>
0

>  <Rbt.Current_Directory>
/home/itssahil/PROJECTS/Mol_Feturizer/New_Systems/rnas/4p3s

>  <Rbt.Executable>
rbdock ($Id: //depot/dev/client3/rdock/2013.1/src/exe/rbdock.cxx#4 $)

>  <Rbt.Library>
libRbt.so (2013.1, Build901 2013/11/27)

>  <Rbt.Parameter_File>
/export/apps/rDock/src/rDock_2013.1_src/data/scripts/dock_solv.prm

>  <Rbt.Receptor>
prm/pocket_docking_8.prm

>  <SCORE>
-6.56221

>  <SCORE.INTER>
-4.69831

>  <SCORE.INTER.CONST>
1

>  <SCORE.INTER.POLAR>
0

>  <SCORE.INTER.ROT>
6

>  <SCORE.INTER.SOLV>
14.3042

>  <SCORE.INTER.VDW>
-15.5003

>  <SCORE.INTER.norm>
-0.138186

>  <SCORE.INTRA>
-1.86389

>  <SCORE.INTRA.DIHEDRAL>
-4.80943

>  <SCORE.INTRA.DIHEDRAL.0>
15.8194

>  <SCORE.INTRA.POLAR>
0

>  <SCORE.INTRA.POLAR.0>
0

>  <SCORE.INTRA.REPUL>
0

>  <SCORE.INTRA.REPUL.0>
0

>  <SCORE.INTRA.SOLV>
-0.578682

>  <SCORE.INTRA.SOLV.lig_0>
-71.9159

>  <SCORE.INTRA.VDW>
0.83016

>  <SCORE.INTRA.VDW.0>
-3.53918

>  <SCORE.INTRA.norm>
-0.0548204

>  <SCORE.RESTR>
0

>  <SCORE.RESTR.CAVITY>
0

>  <SCORE.RESTR.norm>
0

>  <SCORE.SYSTEM>
0

>  <SCORE.SYSTEM.CONST>
0

>  <SCORE.SYSTEM.DIHEDRAL>
0

>  <SCORE.SYSTEM.SOLV>
0

>  <SCORE.SYSTEM.norm>
0

>  <SCORE.heavy>
34

>  <SCORE.norm>
-0.193006

>  <RMSD>
5.794

$$$$
ligand
 OpenBabel01301917533D
libRbt.so/2013.1/901 2013/11/27
 34 36  0  0  0  0  0  0  0  0999 V2000
   21.3252   28.4057   39.1966 C   0  0  2  0  0  0  0  0  0  0  0  0
   21.1375   27.7494   37.9387 O   0  0  0  0  0  0  0  0  0  0  0  0
   20.5115   29.1909   33.9472 C   0  0  2  0  0  0  0  0  0  0  0  0
   19.8955   29.8052   32.7632 N   0  0  0  0  0  0  0  0  0  0  0  0
   21.7617   32.5793   35.2565 C   0  0  2  0  0  0  0  0  0  0  0  0
   22.0611   27.4044   40.1644 C   0  0  2  0  0  0  0  0  0  0  0  0
   23.3579   26.9909   39.6047 N   0  0  0  0  0  0  0  0  0  0  0  0
   19.5231   28.0948   34.4866 C   0  0  0  0  0  0  0  0  0  0  0  0
   20.4003   33.2976   34.9013 C   0  0  2  0  0  0  0  0  0  0  0  0
   19.3045   32.5495   35.3993 O   0  0  0  0  0  0  0  0  0  0  0  0
   21.1679   26.1544   40.4263 C   0  0  1  0  0  0  0  0  0  0  0  0
   21.8369   25.2363   41.3105 O   0  0  0  0  0  0  0  0  0  0  0  0
   20.1904   27.4261   35.7395 C   0  0  2  0  0  0  0  0  0  0  0  0
   19.3011   26.3745   36.3102 N   0  0  0  0  0  0  0  0  0  0  0  0
   20.3070   33.4251   33.3337 C   0  0  1  0  0  0  0  0  0  0  0  0
   19.0349   34.0586   32.9321 N   0  0  0  0  0  0  0  0  0  0  0  0
   19.8200   26.6328   41.0148 C   0  0  2  0  0  0  0  0  0  0  0  0
   18.9881   25.4977   41.2745 O   0  0  0  0  0  0  0  0  0  0  0  0
   20.4867   28.4865   36.8427 C   0  0  2  0  0  0  0  0  0  0  0  0
   21.5188   34.2645   32.8187 C   0  0  1  0  0  0  0  0  0  0  0  0
   21.4385   35.5669   33.3886 O   0  0  0  0  0  0  0  0  0  0  0  0
   19.1384   27.6330   39.9846 C   0  0  2  0  0  0  0  0  0  0  0  0
   20.0182   28.7936   39.7217 O   0  0  0  0  0  0  0  0  0  0  0  0
   21.4103   29.5881   36.2556 C   0  0  2  0  0  0  0  0  0  0  0  0
   21.6398   30.5601   37.2737 O   0  0  0  0  0  0  0  0  0  0  0  0
   22.8432   33.5670   33.2671 C   0  0  0  0  0  0  0  0  0  0  0  0
   22.8852   33.3839   34.7377 O   0  0  0  0  0  0  0  0  0  0  0  0
   17.7712   28.1757   40.4912 C   0  0  2  0  0  0  0  0  0  0  0  0
   17.9086   28.6057   41.8500 O   0  0  0  0  0  0  0  0  0  0  0  0
   20.7557   30.3071   35.0503 C   0  0  1  0  0  0  0  0  0  0  0  0
   21.6995   31.2963   34.5549 O   0  0  0  0  0  0  0  0  0  0  0  0
   16.6862   27.1225   40.4457 C   0  0  0  0  0  0  0  0  0  0  0  0
   21.5110   34.4173   31.2970 C   0  0  0  0  0  0  0  0  0  0  0  0
   18.1029   32.9735   32.5386 C   0  0  0  0  0  0  0  0  0  0  0  0
  1  2  1  6  0  0  0
  1  6  1  0  0  0  0
  1 23  1  0  0  0  0
  3  4  1  6  0  0  0
  3  8  1  0  0  0  0
  3 30  1  0  0  0  0
  5  9  1  0  0  0  0
  5 27  1  0  0  0  0
  5 31  1  6  0  0  0
  6  7  1  6  0  0  0
  6 11  1  0  0  0  0
  8 13  1  0  0  0  0
  9 10  1  6  0  0  0
  9 15  1  0  0  0  0
 11 12  1  1  0  0  0
 11 17  1  0  0  0  0
 13 14  1  1  0  0  0
 13 19  1  0  0  0  0
 15 16  1  1  0  0  0
 15 20  1  0  0  0  0
 16 34  1  0  0  0  0
 17 18  1  6  0  0  0
 17 22  1  0  0  0  0
 19  2  1  1  0  0  0
 19 24  1  0  0  0  0
 20 21  1  1  0  0  0
 20 26  1  0  0  0  0
 20 33  1  0  0  0  0
 22 23  1  1  0  0  0
 22 28  1  0  0  0  0
 24 25  1  1  0  0  0
 24 30  1  0  0  0  0
 26 27  1  0  0  0  0
 28 29  1  1  0  0  0
 28 32  1  0  0  0  0
 30 31  1  6  0  0  0
M  END
>  <CHROM.1>
-178.95188808,-169.30601431,-98.72119386,46.99588631,163.11621680,-70.21924411
20.45568989,29.88495461,36.69137052,-1.67224267,-0.01334625,-0.82540104

>  <Name>
ligand

>  <RI>
0

>  <Rbt.Current_Directory>
/home/itssahil/PROJECTS/Mol_Feturizer/New_Systems/rnas/4p3s

>  <Rbt.Executable>
rbdock ($Id: //depot/dev/client3/rdock/2013.1/src/exe/rbdock.cxx#4 $)

>  <Rbt.Library>
libRbt.so (2013.1, Build901 2013/11/27)

>  <Rbt.Parameter_File>
/export/apps/rDock/src/rDock_2013.1_src/data/scripts/dock_solv.prm

>  <Rbt.Receptor>
prm/pocket_docking_6.prm

>  <SCORE>
-5.05246

>  <SCORE.INTER>
-0.390097

>  <SCORE.INTER.CONST>
1

>  <SCORE.INTER.POLAR>
0

>  <SCORE.INTER.ROT>
6

>  <SCORE.INTER.SOLV>
11.8339

>  <SCORE.INTER.VDW>
-11.8047

>  <SCORE.INTER.norm>
-0.0114734

>  <SCORE.INTRA>
-4.66236

>  <SCORE.INTRA.DIHEDRAL>
-11.912

>  <SCORE.INTRA.DIHEDRAL.0>
15.8194

>  <SCORE.INTRA.POLAR>
0

>  <SCORE.INTRA.POLAR.0>
0

>  <SCORE.INTRA.REPUL>
0

>  <SCORE.INTRA.REPUL.0>
0

>  <SCORE.INTRA.SOLV>
0.633074

>  <SCORE.INTRA.SOLV.lig_0>
-71.9159

>  <SCORE.INTRA.VDW>
0.977099

>  <SCORE.INTRA.VDW.0>
-3.53918

>  <SCORE.INTRA.norm>
-0.137128

>  <SCORE.RESTR>
0

>  <SCORE.RESTR.CAVITY>
0

>  <SCORE.RESTR.norm>
0

>  <SCORE.SYSTEM>
0

>  <SCORE.SYSTEM.CONST>
0

>  <SCORE.SYSTEM.DIHEDRAL>
0

>  <SCORE.SYSTEM.SOLV>
0

>  <SCORE.SYSTEM.norm>
0

>  <SCORE.heavy>
34

>  <SCORE.norm>
-0.148602

>  <RMSD>
5.845

$$$$
ligand
 OpenBabel01301917533D
libRbt.so/2013.1/901 2013/11/27
 34 36  0  0  0  0  0  0  0  0999 V2000
   17.3299   33.4135   34.9751 C   0  0  2  0  0  0  0  0  0  0  0  0
   17.2793   33.9659   36.2944 O   0  0  0  0  0  0  0  0  0  0  0  0
   21.3144   35.4192   36.3839 C   0  0  2  0  0  0  0  0  0  0  0  0
   22.5486   36.0926   36.8103 N   0  0  0  0  0  0  0  0  0  0  0  0
   23.4068   33.6835   37.6431 C   0  0  2  0  0  0  0  0  0  0  0  0
   15.8648   33.3956   34.3971 C   0  0  2  0  0  0  0  0  0  0  0  0
   15.2978   34.7533   34.3618 N   0  0  0  0  0  0  0  0  0  0  0  0
   20.1589   36.4839   36.3979 C   0  0  0  0  0  0  0  0  0  0  0  0
   24.2527   32.3530   37.7407 C   0  0  2  0  0  0  0  0  0  0  0  0
   24.2505   31.6759   36.4957 O   0  0  0  0  0  0  0  0  0  0  0  0
   14.9597   32.4595   35.2535 C   0  0  1  0  0  0  0  0  0  0  0  0
   13.6194   32.4402   34.7287 O   0  0  0  0  0  0  0  0  0  0  0  0
   18.8453   35.7683   35.9239 C   0  0  2  0  0  0  0  0  0  0  0  0
   17.6997   36.7222   35.9183 N   0  0  0  0  0  0  0  0  0  0  0  0
   23.6122   31.4447   38.8574 C   0  0  1  0  0  0  0  0  0  0  0  0
   24.3378   30.1638   38.9743 N   0  0  0  0  0  0  0  0  0  0  0  0
   15.5891   31.0467   35.2619 C   0  0  2  0  0  0  0  0  0  0  0  0
   14.7657   30.1671   36.0341 O   0  0  0  0  0  0  0  0  0  0  0  0
   18.4974   34.5707   36.8588 C   0  0  2  0  0  0  0  0  0  0  0  0
   23.6421   32.2127   40.2167 C   0  0  1  0  0  0  0  0  0  0  0  0
   25.0004   32.4682   40.5591 O   0  0  0  0  0  0  0  0  0  0  0  0
   17.0588   31.1451   35.8588 C   0  0  2  0  0  0  0  0  0  0  0  0
   17.8904   32.0666   35.0530 O   0  0  0  0  0  0  0  0  0  0  0  0
   19.6874   33.5731   36.8731 C   0  0  2  0  0  0  0  0  0  0  0  0
   19.3569   32.5050   37.7584 O   0  0  0  0  0  0  0  0  0  0  0  0
   22.8710   33.5616   40.0516 C   0  0  0  0  0  0  0  0  0  0  0  0
   23.4355   34.3740   38.9474 O   0  0  0  0  0  0  0  0  0  0  0  0
   17.7806   29.7677   35.9047 C   0  0  2  0  0  0  0  0  0  0  0  0
   19.0759   29.9332   36.4921 O   0  0  0  0  0  0  0  0  0  0  0  0
   20.9882   34.2350   37.3908 C   0  0  1  0  0  0  0  0  0  0  0  0
   22.0454   33.2377   37.3431 O   0  0  0  0  0  0  0  0  0  0  0  0
   17.9693   29.1752   34.5256 C   0  0  0  0  0  0  0  0  0  0  0  0
   23.0169   31.4017   41.3526 C   0  0  0  0  0  0  0  0  0  0  0  0
   23.3751   29.0780   38.6659 C   0  0  0  0  0  0  0  0  0  0  0  0
  1  2  1  1  0  0  0
  1  6  1  0  0  0  0
  1 23  1  0  0  0  0
  3  4  1  1  0  0  0
  3  8  1  0  0  0  0
  3 30  1  0  0  0  0
  5  9  1  0  0  0  0
  5 27  1  0  0  0  0
  5 31  1  1  0  0  0
  6  7  1  1  0  0  0
  6 11  1  0  0  0  0
  8 13  1  0  0  0  0
  9 10  1  6  0  0  0
  9 15  1  0  0  0  0
 11 12  1  6  0  0  0
 11 17  1  0  0  0  0
 13 14  1  1  0  0  0
 13 19  1  0  0  0  0
 15 16  1  1  0  0  0
 15 20  1  0  0  0  0
 16 34  1  0  0  0  0
 17 18  1  1  0  0  0
 17 22  1  0  0  0  0
 19  2  1  6  0  0  0
 19 24  1  0  0  0  0
 20 21  1  1  0  0  0
 20 26  1  0  0  0  0
 20 33  1  0  0  0  0
 22 23  1  6  0  0  0
 22 28  1  0  0  0  0
 24 25  1  1  0  0  0
 24 30  1  0  0  0  0
 26 27  1  0  0  0  0
 28 29  1  6  0  0  0
 28 32  1  0  0  0  0
 30 31  1  6  0  0  0
M  END
>  <CHROM.1>
-156.78748526,62.08859338,-118.96193053,-178.14124199,57.73806800,170.99601695
19.91090974,32.74351346,36.96173393,-3.07716103,0.45161179,3.03373058

>  <Name>
ligand

>  <RI>
0

>  <Rbt.Current_Directory>
/home/itssahil/PROJECTS/Mol_Feturizer/New_Systems/rnas/4p3s

>  <Rbt.Executable>
rbdock ($Id: //depot/dev/client3/rdock/2013.1/src/exe/rbdock.cxx#4 $)

>  <Rbt.Library>
libRbt.so (2013.1, Build901 2013/11/27)

>  <Rbt.Parameter_File>
/export/apps/rDock/src/rDock_2013.1_src/data/scripts/dock_solv.prm

>  <Rbt.Receptor>
prm/pocket_docking_8.prm

>  <SCORE>
-8.83741

>  <SCORE.INTER>
-5.58516

>  <SCORE.INTER.CONST>
1

>  <SCORE.INTER.POLAR>
0

>  <SCORE.INTER.ROT>
6

>  <SCORE.INTER.SOLV>
14.9859

>  <SCORE.INTER.VDW>
-16.3187

>  <SCORE.INTER.norm>
-0.164269

>  <SCORE.INTRA>
-3.25225

>  <SCORE.INTRA.DIHEDRAL>
-11.7051

>  <SCORE.INTRA.DIHEDRAL.0>
15.8194

>  <SCORE.INTRA.POLAR>
0

>  <SCORE.INTRA.POLAR.0>
0

>  <SCORE.INTRA.REPUL>
0

>  <SCORE.INTRA.REPUL.0>
0

>  <SCORE.INTRA.SOLV>
2.51318

>  <SCORE.INTRA.SOLV.lig_0>
-71.9159

>  <SCORE.INTRA.VDW>
1.34369

>  <SCORE.INTRA.VDW.0>
-3.53918

>  <SCORE.INTRA.norm>
-0.0956544

>  <SCORE.RESTR>
0

>  <SCORE.RESTR.CAVITY>
0

>  <SCORE.RESTR.norm>
0

>  <SCORE.SYSTEM>
0

>  <SCORE.SYSTEM.CONST>
0

>  <SCORE.SYSTEM.DIHEDRAL>
0

>  <SCORE.SYSTEM.SOLV>
0

>  <SCORE.SYSTEM.norm>
0

>  <SCORE.heavy>
34

>  <SCORE.norm>
-0.259924

>  <RMSD>
5.858

$$$$
ligand
 OpenBabel01301917533D
libRbt.so/2013.1/901 2013/11/27
 34 36  0  0  0  0  0  0  0  0999 V2000
   19.9082   29.8974   38.7830 C   0  0  2  0  0  0  0  0  0  0  0  0
   21.0331   30.6615   39.2290 O   0  0  0  0  0  0  0  0  0  0  0  0
   23.2213   33.6209   37.0254 C   0  0  2  0  0  0  0  0  0  0  0  0
   24.1966   34.2613   36.1325 N   0  0  0  0  0  0  0  0  0  0  0  0
   22.2077   34.1199   34.1124 C   0  0  2  0  0  0  0  0  0  0  0  0
   19.0545   29.5028   40.0464 C   0  0  2  0  0  0  0  0  0  0  0  0
   18.6034   30.7021   40.7705 N   0  0  0  0  0  0  0  0  0  0  0  0
   24.0201   32.7476   38.0591 C   0  0  0  0  0  0  0  0  0  0  0  0
   21.1039   34.8909   33.2862 C   0  0  2  0  0  0  0  0  0  0  0  0
   20.5390   35.9289   34.0685 O   0  0  0  0  0  0  0  0  0  0  0  0
   19.8866   28.5867   40.9937 C   0  0  1  0  0  0  0  0  0  0  0  0
   19.1100   28.2238   42.1501 O   0  0  0  0  0  0  0  0  0  0  0  0
   22.9787   32.0795   39.0242 C   0  0  2  0  0  0  0  0  0  0  0  0
   23.6691   31.2266   40.0334 N   0  0  0  0  0  0  0  0  0  0  0  0
   19.9923   33.8561   32.8671 C   0  0  1  0  0  0  0  0  0  0  0  0
   18.9075   34.5231   32.1192 N   0  0  0  0  0  0  0  0  0  0  0  0
   20.3371   27.3409   40.1955 C   0  0  2  0  0  0  0  0  0  0  0  0
   21.0938   26.4792   41.0517 O   0  0  0  0  0  0  0  0  0  0  0  0
   21.9697   31.1983   38.2276 C   0  0  2  0  0  0  0  0  0  0  0  0
   20.6432   32.7349   31.9967 C   0  0  1  0  0  0  0  0  0  0  0  0
   21.1781   33.3324   30.8202 O   0  0  0  0  0  0  0  0  0  0  0  0
   21.1921   27.8175   38.9433 C   0  0  2  0  0  0  0  0  0  0  0  0
   20.3960   28.7150   38.0769 O   0  0  0  0  0  0  0  0  0  0  0  0
   21.2479   32.0784   37.1713 C   0  0  2  0  0  0  0  0  0  0  0  0
   20.3553   31.2433   36.4368 O   0  0  0  0  0  0  0  0  0  0  0  0
   21.7871   32.0580   32.8183 C   0  0  0  0  0  0  0  0  0  0  0  0
   22.7874   33.0539   33.2719 O   0  0  0  0  0  0  0  0  0  0  0  0
   21.6900   26.6298   38.0705 C   0  0  2  0  0  0  0  0  0  0  0  0
   22.5914   27.1227   37.0731 O   0  0  0  0  0  0  0  0  0  0  0  0
   22.2450   32.7082   36.1674 C   0  0  1  0  0  0  0  0  0  0  0  0
   21.4843   33.5302   35.2399 O   0  0  0  0  0  0  0  0  0  0  0  0
   20.5539   25.9262   37.3614 C   0  0  0  0  0  0  0  0  0  0  0  0
   19.6280   31.6759   31.5648 C   0  0  0  0  0  0  0  0  0  0  0  0
   17.7193   34.5691   33.0062 C   0  0  0  0  0  0  0  0  0  0  0  0
  1  2  1  1  0  0  0
  1  6  1  0  0  0  0
  1 23  1  0  0  0  0
  3  4  1  6  0  0  0
  3  8  1  0  0  0  0
  3 30  1  0  0  0  0
  5  9  1  0  0  0  0
  5 27  1  0  0  0  0
  5 31  1  1  0  0  0
  6  7  1  1  0  0  0
  6 11  1  0  0  0  0
  8 13  1  0  0  0  0
  9 10  1  1  0  0  0
  9 15  1  0  0  0  0
 11 12  1  1  0  0  0
 11 17  1  0  0  0  0
 13 14  1  1  0  0  0
 13 19  1  0  0  0  0
 15 16  1  6  0  0  0
 15 20  1  0  0  0  0
 16 34  1  0  0  0  0
 17 18  1  1  0  0  0
 17 22  1  0  0  0  0
 19  2  1  1  0  0  0
 19 24  1  0  0  0  0
 20 21  1  6  0  0  0
 20 26  1  0  0  0  0
 20 33  1  0  0  0  0
 22 23  1  6  0  0  0
 22 28  1  0  0  0  0
 24 25  1  6  0  0  0
 24 30  1  0  0  0  0
 26 27  1  0  0  0  0
 28 29  1  6  0  0  0
 28 32  1  0  0  0  0
 30 31  1  6  0  0  0
M  END
>  <CHROM.1>
-177.78083286,174.65813899,-108.24043256,-172.44608533,70.65017739,177.96251015
21.08344968,31.24546907,36.63442940,1.60506866,0.96587829,2.22853923

>  <Name>
ligand

>  <RI>
0

>  <Rbt.Current_Directory>
/home/itssahil/PROJECTS/Mol_Feturizer/New_Systems/rnas/4p3s

>  <Rbt.Executable>
rbdock ($Id: //depot/dev/client3/rdock/2013.1/src/exe/rbdock.cxx#4 $)

>  <Rbt.Library>
libRbt.so (2013.1, Build901 2013/11/27)

>  <Rbt.Parameter_File>
/export/apps/rDock/src/rDock_2013.1_src/data/scripts/dock_solv.prm

>  <Rbt.Receptor>
prm/pocket_docking_8.prm

>  <SCORE>
-6.30789

>  <SCORE.INTER>
-0.275236

>  <SCORE.INTER.CONST>
1

>  <SCORE.INTER.POLAR>
0

>  <SCORE.INTER.ROT>
6

>  <SCORE.INTER.SOLV>
8.99585

>  <SCORE.INTER.VDW>
-10.7821

>  <SCORE.INTER.norm>
-0.00809516

>  <SCORE.INTRA>
-6.03266

>  <SCORE.INTRA.DIHEDRAL>
-13.672

>  <SCORE.INTRA.DIHEDRAL.0>
15.8194

>  <SCORE.INTRA.POLAR>
0

>  <SCORE.INTRA.POLAR.0>
0

>  <SCORE.INTRA.REPUL>
0

>  <SCORE.INTRA.REPUL.0>
0

>  <SCORE.INTRA.SOLV>
-1.04712

>  <SCORE.INTRA.SOLV.lig_0>
-71.9159

>  <SCORE.INTRA.VDW>
1.32693

>  <SCORE.INTRA.VDW.0>
-3.53918

>  <SCORE.INTRA.norm>
-0.177431

>  <SCORE.RESTR>
0

>  <SCORE.RESTR.CAVITY>
0

>  <SCORE.RESTR.norm>
0

>  <SCORE.SYSTEM>
0

>  <SCORE.SYSTEM.CONST>
0

>  <SCORE.SYSTEM.DIHEDRAL>
0

>  <SCORE.SYSTEM.SOLV>
0

>  <SCORE.SYSTEM.norm>
0

>  <SCORE.heavy>
34

>  <SCORE.norm>
-0.185526

>  <RMSD>
5.881

$$$$
ligand
 OpenBabel01301917533D
libRbt.so/2013.1/901 2013/11/27
 34 36  0  0  0  0  0  0  0  0999 V2000
   17.9062   23.3014   33.3638 C   0  0  2  0  0  0  0  0  0  0  0  0
   17.1468   24.5048   33.2118 O   0  0  0  0  0  0  0  0  0  0  0  0
   15.8559   27.9268   35.4537 C   0  0  2  0  0  0  0  0  0  0  0  0
   15.4753   28.8059   36.5676 N   0  0  0  0  0  0  0  0  0  0  0  0
   18.1701   29.7314   36.5504 C   0  0  2  0  0  0  0  0  0  0  0  0
   18.1675   22.7048   31.9297 C   0  0  2  0  0  0  0  0  0  0  0  0
   18.8956   23.6660   31.0860 N   0  0  0  0  0  0  0  0  0  0  0  0
   14.9858   26.6222   35.5548 C   0  0  0  0  0  0  0  0  0  0  0  0
   18.9905   30.9787   36.0340 C   0  0  2  0  0  0  0  0  0  0  0  0
   18.3483   31.5602   34.9124 O   0  0  0  0  0  0  0  0  0  0  0  0
   16.8178   22.3150   31.2549 C   0  0  1  0  0  0  0  0  0  0  0  0
   17.0519   21.7693   29.9435 O   0  0  0  0  0  0  0  0  0  0  0  0
   15.3792   25.6923   34.3537 C   0  0  2  0  0  0  0  0  0  0  0  0
   14.5930   24.4263   34.3895 N   0  0  0  0  0  0  0  0  0  0  0  0
   20.4354   30.4878   35.6421 C   0  0  1  0  0  0  0  0  0  0  0  0
   21.2456   31.6043   35.1150 N   0  0  0  0  0  0  0  0  0  0  0  0
   16.0883   21.3047   32.1709 C   0  0  2  0  0  0  0  0  0  0  0  0
   14.8501   20.9239   31.5628 O   0  0  0  0  0  0  0  0  0  0  0  0
   16.8974   25.3423   34.3970 C   0  0  2  0  0  0  0  0  0  0  0  0
   21.1199   29.8659   36.9003 C   0  0  1  0  0  0  0  0  0  0  0  0
   21.2354   30.8774   37.8957 O   0  0  0  0  0  0  0  0  0  0  0  0
   15.8584   21.9769   33.5926 C   0  0  2  0  0  0  0  0  0  0  0  0
   17.1489   22.3725   34.1995 O   0  0  0  0  0  0  0  0  0  0  0  0
   17.7244   26.6563   34.3633 C   0  0  2  0  0  0  0  0  0  0  0  0
   19.1059   26.3099   34.4356 O   0  0  0  0  0  0  0  0  0  0  0  0
   20.2323   28.6945   37.4309 C   0  0  0  0  0  0  0  0  0  0  0  0
   18.8532   29.1530   37.7241 O   0  0  0  0  0  0  0  0  0  0  0  0
   15.1311   21.0319   34.5919 C   0  0  2  0  0  0  0  0  0  0  0  0
   15.6215   19.6975   34.4214 O   0  0  0  0  0  0  0  0  0  0  0  0
   17.3998   27.5726   35.5688 C   0  0  1  0  0  0  0  0  0  0  0  0
   18.1974   28.7815   35.4373 O   0  0  0  0  0  0  0  0  0  0  0  0
   13.6349   21.0079   34.3697 C   0  0  0  0  0  0  0  0  0  0  0  0
   22.5253   29.3453   36.5956 C   0  0  0  0  0  0  0  0  0  0  0  0
   21.1587   31.5564   33.6348 C   0  0  0  0  0  0  0  0  0  0  0  0
  1  2  1  6  0  0  0
  1  6  1  0  0  0  0
  1 23  1  0  0  0  0
  3  4  1  1  0  0  0
  3  8  1  0  0  0  0
  3 30  1  0  0  0  0
  5  9  1  0  0  0  0
  5 27  1  0  0  0  0
  5 31  1  6  0  0  0
  6  7  1  6  0  0  0
  6 11  1  0  0  0  0
  8 13  1  0  0  0  0
  9 10  1  6  0  0  0
  9 15  1  0  0  0  0
 11 12  1  6  0  0  0
 11 17  1  0  0  0  0
 13 14  1  1  0  0  0
 13 19  1  0  0  0  0
 15 16  1  1  0  0  0
 15 20  1  0  0  0  0
 16 34  1  0  0  0  0
 17 18  1  6  0  0  0
 17 22  1  0  0  0  0
 19  2  1  6  0  0  0
 19 24  1  0  0  0  0
 20 21  1  1  0  0  0
 20 26  1  0  0  0  0
 20 33  1  0  0  0  0
 22 23  1  1  0  0  0
 22 28  1  0  0  0  0
 24 25  1  1  0  0  0
 24 30  1  0  0  0  0
 26 27  1  0  0  0  0
 28 29  1  6  0  0  0
 28 32  1  0  0  0  0
 30 31  1  6  0  0  0
M  END
>  <CHROM.1>
-173.18295706,-133.29253801,-96.29464895,38.99616305,71.48826881,-173.94022421
17.72438674,26.12239131,34.54299868,-2.05598304,0.52245472,0.62662526

>  <Name>
ligand

>  <RI>
0

>  <Rbt.Current_Directory>
/home/itssahil/PROJECTS/Mol_Feturizer/New_Systems/rnas/4p3s

>  <Rbt.Executable>
rbdock ($Id: //depot/dev/client3/rdock/2013.1/src/exe/rbdock.cxx#4 $)

>  <Rbt.Library>
libRbt.so (2013.1, Build901 2013/11/27)

>  <Rbt.Parameter_File>
/export/apps/rDock/src/rDock_2013.1_src/data/scripts/dock_solv.prm

>  <Rbt.Receptor>
prm/pocket_docking_8.prm

>  <SCORE>
-10.8714

>  <SCORE.INTER>
-9.18991

>  <SCORE.INTER.CONST>
1

>  <SCORE.INTER.POLAR>
0

>  <SCORE.INTER.ROT>
6

>  <SCORE.INTER.SOLV>
15.0311

>  <SCORE.INTER.VDW>
-18.737

>  <SCORE.INTER.norm>
-0.270292

>  <SCORE.INTRA>
-1.68152

>  <SCORE.INTRA.DIHEDRAL>
-6.09142

>  <SCORE.INTRA.DIHEDRAL.0>
15.8194

>  <SCORE.INTRA.POLAR>
0

>  <SCORE.INTRA.POLAR.0>
0

>  <SCORE.INTRA.REPUL>
0

>  <SCORE.INTRA.REPUL.0>
0

>  <SCORE.INTRA.SOLV>
2.67226

>  <SCORE.INTRA.SOLV.lig_0>
-71.9159

>  <SCORE.INTRA.VDW>
0.0280569

>  <SCORE.INTRA.VDW.0>
-3.53918

>  <SCORE.INTRA.norm>
-0.0494565

>  <SCORE.RESTR>
0

>  <SCORE.RESTR.CAVITY>
0

>  <SCORE.RESTR.norm>
0

>  <SCORE.SYSTEM>
0

>  <SCORE.SYSTEM.CONST>
0

>  <SCORE.SYSTEM.DIHEDRAL>
0

>  <SCORE.SYSTEM.SOLV>
0

>  <SCORE.SYSTEM.norm>
0

>  <SCORE.heavy>
34

>  <SCORE.norm>
-0.319748

>  <RMSD>
5.943

$$$$
ligand
 OpenBabel01301917533D
libRbt.so/2013.1/901 2013/11/27
 34 36  0  0  0  0  0  0  0  0999 V2000
   19.4365   24.5936   34.0049 C   0  0  2  0  0  0  0  0  0  0  0  0
   18.1880   25.0470   34.5377 O   0  0  0  0  0  0  0  0  0  0  0  0
   16.9077   29.1269   34.1951 C   0  0  2  0  0  0  0  0  0  0  0  0
   16.6201   30.5329   34.5096 N   0  0  0  0  0  0  0  0  0  0  0  0
   18.5047   30.9971   32.8569 C   0  0  2  0  0  0  0  0  0  0  0  0
   19.1864   24.0960   32.5317 C   0  0  2  0  0  0  0  0  0  0  0  0
   18.6372   25.1776   31.6984 N   0  0  0  0  0  0  0  0  0  0  0  0
   16.2198   28.2401   35.2948 C   0  0  0  0  0  0  0  0  0  0  0  0
   19.1446   31.4227   31.4768 C   0  0  2  0  0  0  0  0  0  0  0  0
   18.7842   30.5012   30.4621 O   0  0  0  0  0  0  0  0  0  0  0  0
   18.2166   22.8760   32.5330 C   0  0  1  0  0  0  0  0  0  0  0  0
   17.9850   22.4179   31.1880 O   0  0  0  0  0  0  0  0  0  0  0  0
   16.5113   26.7379   34.9472 C   0  0  2  0  0  0  0  0  0  0  0  0
   15.8903   25.8345   35.9574 N   0  0  0  0  0  0  0  0  0  0  0  0
   20.7100   31.4581   31.6515 C   0  0  1  0  0  0  0  0  0  0  0  0
   21.3733   31.8155   30.3815 N   0  0  0  0  0  0  0  0  0  0  0  0
   18.8316   21.7649   33.4158 C   0  0  2  0  0  0  0  0  0  0  0  0
   17.9611   20.6291   33.4207 O   0  0  0  0  0  0  0  0  0  0  0  0
   18.0454   26.4657   34.9054 C   0  0  2  0  0  0  0  0  0  0  0  0
   21.0743   32.4907   32.7648 C   0  0  1  0  0  0  0  0  0  0  0  0
   20.6322   33.7779   32.3464 O   0  0  0  0  0  0  0  0  0  0  0  0
   19.0509   22.3391   34.8815 C   0  0  2  0  0  0  0  0  0  0  0  0
   19.9446   23.5183   34.8535 O   0  0  0  0  0  0  0  0  0  0  0  0
   18.7013   27.4053   33.8573 C   0  0  2  0  0  0  0  0  0  0  0  0
   20.1059   27.1586   33.8614 O   0  0  0  0  0  0  0  0  0  0  0  0
   20.3509   32.0825   34.0883 C   0  0  0  0  0  0  0  0  0  0  0  0
   18.8851   31.9785   33.8918 O   0  0  0  0  0  0  0  0  0  0  0  0
   19.6734   21.2915   35.8487 C   0  0  2  0  0  0  0  0  0  0  0  0
   20.2645   21.9702   36.9623 O   0  0  0  0  0  0  0  0  0  0  0  0
   18.4794   28.8985   34.2032 C   0  0  1  0  0  0  0  0  0  0  0  0
   19.1021   29.6954   33.1583 O   0  0  0  0  0  0  0  0  0  0  0  0
   20.7531   20.4684   35.1813 C   0  0  0  0  0  0  0  0  0  0  0  0
   22.5819   32.5692   33.0091 C   0  0  0  0  0  0  0  0  0  0  0  0
   21.4805   30.5769   29.5720 C   0  0  0  0  0  0  0  0  0  0  0  0
  1  2  1  1  0  0  0
  1  6  1  0  0  0  0
  1 23  1  0  0  0  0
  3  4  1  1  0  0  0
  3  8  1  0  0  0  0
  3 30  1  0  0  0  0
  5  9  1  0  0  0  0
  5 27  1  0  0  0  0
  5 31  1  1  0  0  0
  6  7  1  6  0  0  0
  6 11  1  0  0  0  0
  8 13  1  0  0  0  0
  9 10  1  6  0  0  0
  9 15  1  0  0  0  0
 11 12  1  6  0  0  0
 11 17  1  0  0  0  0
 13 14  1  1  0  0  0
 13 19  1  0  0  0  0
 15 16  1  6  0  0  0
 15 20  1  0  0  0  0
 16 34  1  0  0  0  0
 17 18  1  1  0  0  0
 17 22  1  0  0  0  0
 19  2  1  6  0  0  0
 19 24  1  0  0  0  0
 20 21  1  6  0  0  0
 20 26  1  0  0  0  0
 20 33  1  0  0  0  0
 22 23  1  6  0  0  0
 22 28  1  0  0  0  0
 24 25  1  1  0  0  0
 24 30  1  0  0  0  0
 26 27  1  0  0  0  0
 28 29  1  1  0  0  0
 28 32  1  0  0  0  0
 30 31  1  6  0  0  0
M  END
>  <CHROM.1>
-116.61474105,160.23090303,-82.63920752,159.95533782,34.20004016,-165.68630411
19.08974596,27.21744196,33.47530288,-1.73751293,0.80840800,-0.09030173

>  <Name>
ligand

>  <RI>
0

>  <Rbt.Current_Directory>
/home/itssahil/PROJECTS/Mol_Feturizer/New_Systems/rnas/4p3s

>  <Rbt.Executable>
rbdock ($Id: //depot/dev/client3/rdock/2013.1/src/exe/rbdock.cxx#4 $)

>  <Rbt.Library>
libRbt.so (2013.1, Build901 2013/11/27)

>  <Rbt.Parameter_File>
/export/apps/rDock/src/rDock_2013.1_src/data/scripts/dock_solv.prm

>  <Rbt.Receptor>
prm/blind_docking_60.prm

>  <SCORE>
17.1901

>  <SCORE.INTER>
-2.21714

>  <SCORE.INTER.CONST>
1

>  <SCORE.INTER.POLAR>
0

>  <SCORE.INTER.ROT>
6

>  <SCORE.INTER.SOLV>
23.3852

>  <SCORE.INTER.VDW>
-16.8731

>  <SCORE.INTER.norm>
-0.06521

>  <SCORE.INTRA>
6.92648

>  <SCORE.INTRA.DIHEDRAL>
-1.39248

>  <SCORE.INTRA.DIHEDRAL.0>
15.8194

>  <SCORE.INTRA.POLAR>
0

>  <SCORE.INTRA.POLAR.0>
0

>  <SCORE.INTRA.REPUL>
0

>  <SCORE.INTRA.REPUL.0>
0

>  <SCORE.INTRA.SOLV>
2.15504

>  <SCORE.INTRA.SOLV.lig_0>
-71.9159

>  <SCORE.INTRA.VDW>
6.5452

>  <SCORE.INTRA.VDW.0>
-3.53918

>  <SCORE.INTRA.norm>
0.20372

>  <SCORE.RESTR>
12.4808

>  <SCORE.RESTR.CAVITY>
12.4808

>  <SCORE.RESTR.norm>
0.367083

>  <SCORE.SYSTEM>
0

>  <SCORE.SYSTEM.CONST>
0

>  <SCORE.SYSTEM.DIHEDRAL>
0

>  <SCORE.SYSTEM.SOLV>
0

>  <SCORE.SYSTEM.norm>
0

>  <SCORE.heavy>
34

>  <SCORE.norm>
0.505593

>  <RMSD>
5.973

$$$$
ligand
 OpenBabel01301917533D
libRbt.so/2013.1/901 2013/11/27
 34 36  0  0  0  0  0  0  0  0999 V2000
   21.5424   28.1802   38.9452 C   0  0  2  0  0  0  0  0  0  0  0  0
   21.7936   29.2372   39.8768 O   0  0  0  0  0  0  0  0  0  0  0  0
   22.8493   33.3571   39.3161 C   0  0  2  0  0  0  0  0  0  0  0  0
   23.6117   34.5764   39.0152 N   0  0  0  0  0  0  0  0  0  0  0  0
   22.5235   34.4324   36.4120 C   0  0  2  0  0  0  0  0  0  0  0  0
   20.5546   27.1574   39.6224 C   0  0  2  0  0  0  0  0  0  0  0  0
   19.2941   27.8166   40.0001 N   0  0  0  0  0  0  0  0  0  0  0  0
   23.6566   32.5403   40.3886 C   0  0  0  0  0  0  0  0  0  0  0  0
   21.3915   35.0769   35.5183 C   0  0  2  0  0  0  0  0  0  0  0  0
   20.3041   35.4934   36.3261 O   0  0  0  0  0  0  0  0  0  0  0  0
   21.2204   26.5162   40.8772 C   0  0  1  0  0  0  0  0  0  0  0  0
   20.3207   25.5806   41.4995 O   0  0  0  0  0  0  0  0  0  0  0  0
   22.8321   31.2479   40.7235 C   0  0  2  0  0  0  0  0  0  0  0  0
   23.5449   30.4173   41.7357 N   0  0  0  0  0  0  0  0  0  0  0  0
   20.9148   33.9965   34.4754 C   0  0  1  0  0  0  0  0  0  0  0  0
   19.8267   34.5263   33.6290 N   0  0  0  0  0  0  0  0  0  0  0  0
   22.5366   25.8343   40.4360 C   0  0  2  0  0  0  0  0  0  0  0  0
   23.1589   25.2277   41.5731 O   0  0  0  0  0  0  0  0  0  0  0  0
   22.6003   30.3902   39.4430 C   0  0  2  0  0  0  0  0  0  0  0  0
   22.1307   33.5693   33.5937 C   0  0  1  0  0  0  0  0  0  0  0  0
   22.5968   34.7133   32.8857 O   0  0  0  0  0  0  0  0  0  0  0  0
   23.4790   26.9257   39.7675 C   0  0  2  0  0  0  0  0  0  0  0  0
   22.8138   27.5478   38.6011 O   0  0  0  0  0  0  0  0  0  0  0  0
   21.8608   31.2490   38.3814 C   0  0  2  0  0  0  0  0  0  0  0  0
   21.6895   30.4525   37.2109 O   0  0  0  0  0  0  0  0  0  0  0  0
   23.2604   33.0207   34.5234 C   0  0  0  0  0  0  0  0  0  0  0  0
   23.6473   34.0191   35.5489 O   0  0  0  0  0  0  0  0  0  0  0  0
   24.8336   26.3328   39.2840 C   0  0  2  0  0  0  0  0  0  0  0  0
   24.5863   25.1289   38.5494 O   0  0  0  0  0  0  0  0  0  0  0  0
   22.6760   32.5053   37.9869 C   0  0  1  0  0  0  0  0  0  0  0  0
   21.8966   33.2553   37.0149 O   0  0  0  0  0  0  0  0  0  0  0  0
   25.7521   25.9921   40.4368 C   0  0  0  0  0  0  0  0  0  0  0  0
   21.7521   32.5031   32.5648 C   0  0  0  0  0  0  0  0  0  0  0  0
   18.5500   33.9851   34.1561 C   0  0  0  0  0  0  0  0  0  0  0  0
  1  2  1  1  0  0  0
  1  6  1  0  0  0  0
  1 23  1  0  0  0  0
  3  4  1  6  0  0  0
  3  8  1  0  0  0  0
  3 30  1  0  0  0  0
  5  9  1  0  0  0  0
  5 27  1  0  0  0  0
  5 31  1  6  0  0  0
  6  7  1  1  0  0  0
  6 11  1  0  0  0  0
  8 13  1  0  0  0  0
  9 10  1  1  0  0  0
  9 15  1  0  0  0  0
 11 12  1  6  0  0  0
 11 17  1  0  0  0  0
 13 14  1  1  0  0  0
 13 19  1  0  0  0  0
 15 16  1  6  0  0  0
 15 20  1  0  0  0  0
 16 34  1  0  0  0  0
 17 18  1  1  0  0  0
 17 22  1  0  0  0  0
 19  2  1  1  0  0  0
 19 24  1  0  0  0  0
 20 21  1  6  0  0  0
 20 26  1  0  0  0  0
 20 33  1  0  0  0  0
 22 23  1  6  0  0  0
 22 28  1  0  0  0  0
 24 25  1  6  0  0  0
 24 30  1  0  0  0  0
 26 27  1  0  0  0  0
 28 29  1  1  0  0  0
 28 32  1  0  0  0  0
 30 31  1  6  0  0  0
M  END
>  <CHROM.1>
-174.75491230,-172.98403894,-100.90558236,47.29433826,69.62510619,-175.25647993
22.23530111,30.64763894,37.93233509,1.27041506,1.13100787,2.79135223

>  <Name>
ligand

>  <RI>
0

>  <Rbt.Current_Directory>
/home/itssahil/PROJECTS/Mol_Feturizer/New_Systems/rnas/4p3s

>  <Rbt.Executable>
rbdock ($Id: //depot/dev/client3/rdock/2013.1/src/exe/rbdock.cxx#4 $)

>  <Rbt.Library>
libRbt.so (2013.1, Build901 2013/11/27)

>  <Rbt.Parameter_File>
/export/apps/rDock/src/rDock_2013.1_src/data/scripts/dock_solv.prm

>  <Rbt.Receptor>
prm/pocket_docking_7.prm

>  <SCORE>
-10.1349

>  <SCORE.INTER>
-4.07622

>  <SCORE.INTER.CONST>
1

>  <SCORE.INTER.POLAR>
0

>  <SCORE.INTER.ROT>
6

>  <SCORE.INTER.SOLV>
10.1435

>  <SCORE.INTER.VDW>
-13.6986

>  <SCORE.INTER.norm>
-0.119889

>  <SCORE.INTRA>
-6.05868

>  <SCORE.INTRA.DIHEDRAL>
-13.301

>  <SCORE.INTRA.DIHEDRAL.0>
15.8194

>  <SCORE.INTRA.POLAR>
0

>  <SCORE.INTRA.POLAR.0>
0

>  <SCORE.INTRA.REPUL>
0

>  <SCORE.INTRA.REPUL.0>
0

>  <SCORE.INTRA.SOLV>
-0.515804

>  <SCORE.INTRA.SOLV.lig_0>
-71.9159

>  <SCORE.INTRA.VDW>
0.849722

>  <SCORE.INTRA.VDW.0>
-3.53918

>  <SCORE.INTRA.norm>
-0.178196

>  <SCORE.RESTR>
0

>  <SCORE.RESTR.CAVITY>
0

>  <SCORE.RESTR.norm>
0

>  <SCORE.SYSTEM>
0

>  <SCORE.SYSTEM.CONST>
0

>  <SCORE.SYSTEM.DIHEDRAL>
0

>  <SCORE.SYSTEM.SOLV>
0

>  <SCORE.SYSTEM.norm>
0

>  <SCORE.heavy>
34

>  <SCORE.norm>
-0.298085

>  <RMSD>
6.056

$$$$
ligand
 OpenBabel01301917533D
libRbt.so/2013.1/901 2013/11/27
 34 36  0  0  0  0  0  0  0  0999 V2000
   18.4012   23.3129   33.6865 C   0  0  2  0  0  0  0  0  0  0  0  0
   17.5531   24.4575   33.5490 O   0  0  0  0  0  0  0  0  0  0  0  0
   16.4126   27.7864   36.0024 C   0  0  2  0  0  0  0  0  0  0  0  0
   15.8931   28.5863   37.1200 N   0  0  0  0  0  0  0  0  0  0  0  0
   18.8459   28.3079   38.2604 C   0  0  2  0  0  0  0  0  0  0  0  0
   18.9865   22.9658   32.2660 C   0  0  2  0  0  0  0  0  0  0  0  0
   19.7453   24.1020   31.7190 N   0  0  0  0  0  0  0  0  0  0  0  0
   15.2819   26.7879   35.5623 C   0  0  0  0  0  0  0  0  0  0  0  0
   20.0268   29.3558   38.3116 C   0  0  2  0  0  0  0  0  0  0  0  0
   19.7047   30.4986   37.5378 O   0  0  0  0  0  0  0  0  0  0  0  0
   17.8359   22.5715   31.2915 C   0  0  1  0  0  0  0  0  0  0  0  0
   18.3664   22.2535   29.9916 O   0  0  0  0  0  0  0  0  0  0  0  0
   15.8308   25.9475   34.3562 C   0  0  2  0  0  0  0  0  0  0  0  0
   14.8076   24.9697   33.8879 N   0  0  0  0  0  0  0  0  0  0  0  0
   21.3237   28.6618   37.7470 C   0  0  1  0  0  0  0  0  0  0  0  0
   22.4612   29.6036   37.7337 N   0  0  0  0  0  0  0  0  0  0  0  0
   17.0680   21.3758   31.9020 C   0  0  2  0  0  0  0  0  0  0  0  0
   16.0129   20.9894   31.0156 O   0  0  0  0  0  0  0  0  0  0  0  0
   17.1195   25.1706   34.7621 C   0  0  2  0  0  0  0  0  0  0  0  0
   21.6588   27.4168   38.6278 C   0  0  1  0  0  0  0  0  0  0  0  0
   21.9197   27.8618   39.9550 O   0  0  0  0  0  0  0  0  0  0  0  0
   16.5072   21.8019   33.3268 C   0  0  2  0  0  0  0  0  0  0  0  0
   17.6118   22.2074   34.2242 O   0  0  0  0  0  0  0  0  0  0  0  0
   18.1903   26.1818   35.2545 C   0  0  2  0  0  0  0  0  0  0  0  0
   19.3454   25.4441   35.6486 O   0  0  0  0  0  0  0  0  0  0  0  0
   20.4322   26.4489   38.6214 C   0  0  0  0  0  0  0  0  0  0  0  0
   19.2014   27.1348   39.0827 O   0  0  0  0  0  0  0  0  0  0  0  0
   15.7188   20.6581   34.0272 C   0  0  2  0  0  0  0  0  0  0  0  0
   14.7006   20.1768   33.1431 O   0  0  0  0  0  0  0  0  0  0  0  0
   17.6996   26.9889   36.4818 C   0  0  1  0  0  0  0  0  0  0  0  0
   18.7521   27.9215   36.8518 O   0  0  0  0  0  0  0  0  0  0  0  0
   15.0458   21.1239   35.2994 C   0  0  0  0  0  0  0  0  0  0  0  0
   22.8994   26.6737   38.1300 C   0  0  0  0  0  0  0  0  0  0  0  0
   22.5440   30.1812   36.3698 C   0  0  0  0  0  0  0  0  0  0  0  0
  1  2  1  6  0  0  0
  1  6  1  0  0  0  0
  1 23  1  0  0  0  0
  3  4  1  1  0  0  0
  3  8  1  0  0  0  0
  3 30  1  0  0  0  0
  5  9  1  0  0  0  0
  5 27  1  0  0  0  0
  5 31  1  6  0  0  0
  6  7  1  6  0  0  0
  6 11  1  0  0  0  0
  8 13  1  0  0  0  0
  9 10  1  6  0  0  0
  9 15  1  0  0  0  0
 11 12  1  6  0  0  0
 11 17  1  0  0  0  0
 13 14  1  1  0  0  0
 13 19  1  0  0  0  0
 15 16  1  1  0  0  0
 15 20  1  0  0  0  0
 16 34  1  0  0  0  0
 17 18  1  6  0  0  0
 17 22  1  0  0  0  0
 19  2  1  6  0  0  0
 19 24  1  0  0  0  0
 20 21  1  1  0  0  0
 20 26  1  0  0  0  0
 20 33  1  0  0  0  0
 22 23  1  1  0  0  0
 22 28  1  0  0  0  0
 24 25  1  1  0  0  0
 24 30  1  0  0  0  0
 26 27  1  0  0  0  0
 28 29  1  6  0  0  0
 28 32  1  0  0  0  0
 30 31  1  6  0  0  0
M  END
>  <CHROM.1>
-166.47431858,-158.25744470,-96.25859400,-53.38284101,93.61689029,-177.65197126
18.36077665,25.45133013,35.34460653,-2.01841141,0.10884844,0.74106180

>  <Name>
ligand

>  <RI>
0

>  <Rbt.Current_Directory>
/home/itssahil/PROJECTS/Mol_Feturizer/New_Systems/rnas/4p3s

>  <Rbt.Executable>
rbdock ($Id: //depot/dev/client3/rdock/2013.1/src/exe/rbdock.cxx#4 $)

>  <Rbt.Library>
libRbt.so (2013.1, Build901 2013/11/27)

>  <Rbt.Parameter_File>
/export/apps/rDock/src/rDock_2013.1_src/data/scripts/dock_solv.prm

>  <Rbt.Receptor>
prm/pocket_docking_7.prm

>  <SCORE>
-13.546

>  <SCORE.INTER>
-9.5716

>  <SCORE.INTER.CONST>
1

>  <SCORE.INTER.POLAR>
0

>  <SCORE.INTER.ROT>
6

>  <SCORE.INTER.SOLV>
17.7738

>  <SCORE.INTER.VDW>
-19.9057

>  <SCORE.INTER.norm>
-0.281518

>  <SCORE.INTRA>
-3.9744

>  <SCORE.INTRA.DIHEDRAL>
-7.56107

>  <SCORE.INTRA.DIHEDRAL.0>
15.8194

>  <SCORE.INTRA.POLAR>
0

>  <SCORE.INTRA.POLAR.0>
0

>  <SCORE.INTRA.REPUL>
0

>  <SCORE.INTRA.REPUL.0>
0

>  <SCORE.INTRA.SOLV>
0.143955

>  <SCORE.INTRA.SOLV.lig_0>
-71.9159

>  <SCORE.INTRA.VDW>
-0.265838

>  <SCORE.INTRA.VDW.0>
-3.53918

>  <SCORE.INTRA.norm>
-0.116894

>  <SCORE.RESTR>
0

>  <SCORE.RESTR.CAVITY>
0

>  <SCORE.RESTR.norm>
0

>  <SCORE.SYSTEM>
0

>  <SCORE.SYSTEM.CONST>
0

>  <SCORE.SYSTEM.DIHEDRAL>
0

>  <SCORE.SYSTEM.SOLV>
0

>  <SCORE.SYSTEM.norm>
0

>  <SCORE.heavy>
34

>  <SCORE.norm>
-0.398412

>  <RMSD>
6.066

$$$$
ligand
 OpenBabel01301917533D
libRbt.so/2013.1/901 2013/11/27
 34 36  0  0  0  0  0  0  0  0999 V2000
   18.1228   23.2264   33.2686 C   0  0  2  0  0  0  0  0  0  0  0  0
   17.1882   24.3008   33.1259 O   0  0  0  0  0  0  0  0  0  0  0  0
   15.7922   27.7321   35.2890 C   0  0  2  0  0  0  0  0  0  0  0  0
   15.3723   28.6204   36.3814 N   0  0  0  0  0  0  0  0  0  0  0  0
   18.0353   29.5986   36.4025 C   0  0  2  0  0  0  0  0  0  0  0  0
   18.5792   22.7821   31.8281 C   0  0  2  0  0  0  0  0  0  0  0  0
   19.1969   23.9044   31.1037 N   0  0  0  0  0  0  0  0  0  0  0  0
   14.9408   26.4152   35.3889 C   0  0  0  0  0  0  0  0  0  0  0  0
   18.8107   30.8667   35.8677 C   0  0  2  0  0  0  0  0  0  0  0  0
   18.1622   31.3937   34.7230 O   0  0  0  0  0  0  0  0  0  0  0  0
   17.3631   22.2304   31.0245 C   0  0  1  0  0  0  0  0  0  0  0  0
   17.7759   21.8232   29.7068 O   0  0  0  0  0  0  0  0  0  0  0  0
   15.3764   25.4752   34.2104 C   0  0  2  0  0  0  0  0  0  0  0  0
   14.6097   24.1972   34.2464 N   0  0  0  0  0  0  0  0  0  0  0  0
   20.2808   30.4281   35.5090 C   0  0  1  0  0  0  0  0  0  0  0  0
   21.0516   31.5649   34.9665 N   0  0  0  0  0  0  0  0  0  0  0  0
   16.7472   21.0544   31.8179 C   0  0  2  0  0  0  0  0  0  0  0  0
   15.6346   20.5246   31.0903 O   0  0  0  0  0  0  0  0  0  0  0  0
   16.8986   25.1505   34.2931 C   0  0  2  0  0  0  0  0  0  0  0  0
   20.9711   29.8658   36.7918 C   0  0  1  0  0  0  0  0  0  0  0  0
   21.0287   30.9047   37.7637 O   0  0  0  0  0  0  0  0  0  0  0  0
   16.3101   21.5790   33.2531 C   0  0  2  0  0  0  0  0  0  0  0  0
   17.4717   22.1318   33.9845 O   0  0  0  0  0  0  0  0  0  0  0  0
   17.7051   26.4771   34.2594 C   0  0  2  0  0  0  0  0  0  0  0  0
   19.0899   26.1543   34.3680 O   0  0  0  0  0  0  0  0  0  0  0  0
   20.1251   28.6710   37.3380 C   0  0  0  0  0  0  0  0  0  0  0  0
   18.7236   29.0777   37.5998 O   0  0  0  0  0  0  0  0  0  0  0  0
   15.6796   20.4618   34.1333 C   0  0  2  0  0  0  0  0  0  0  0  0
   14.6426   19.8076   33.3939 O   0  0  0  0  0  0  0  0  0  0  0  0
   17.3385   27.4047   35.4441 C   0  0  1  0  0  0  0  0  0  0  0  0
   18.1195   28.6244   35.3135 O   0  0  0  0  0  0  0  0  0  0  0  0
   15.0676   21.0118   35.4028 C   0  0  0  0  0  0  0  0  0  0  0  0
   22.4016   29.3978   36.5204 C   0  0  0  0  0  0  0  0  0  0  0  0
   21.0249   31.4544   33.4874 C   0  0  0  0  0  0  0  0  0  0  0  0
  1  2  1  6  0  0  0
  1  6  1  0  0  0  0
  1 23  1  0  0  0  0
  3  4  1  1  0  0  0
  3  8  1  0  0  0  0
  3 30  1  0  0  0  0
  5  9  1  0  0  0  0
  5 27  1  0  0  0  0
  5 31  1  6  0  0  0
  6  7  1  6  0  0  0
  6 11  1  0  0  0  0
  8 13  1  0  0  0  0
  9 10  1  6  0  0  0
  9 15  1  0  0  0  0
 11 12  1  6  0  0  0
 11 17  1  0  0  0  0
 13 14  1  1  0  0  0
 13 19  1  0  0  0  0
 15 16  1  1  0  0  0
 15 20  1  0  0  0  0
 16 34  1  0  0  0  0
 17 18  1  6  0  0  0
 17 22  1  0  0  0  0
 19  2  1  6  0  0  0
 19 24  1  0  0  0  0
 20 21  1  1  0  0  0
 20 26  1  0  0  0  0
 20 33  1  0  0  0  0
 22 23  1  1  0  0  0
 22 28  1  0  0  0  0
 24 25  1  1  0  0  0
 24 30  1  0  0  0  0
 26 27  1  0  0  0  0
 28 29  1  6  0  0  0
 28 32  1  0  0  0  0
 30 31  1  6  0  0  0
M  END
>  <CHROM.1>
-162.73784677,-142.50258722,-98.00728109,-51.29257582,70.55024698,-172.07393768
17.82232646,25.99926583,34.38436098,-1.99819226,0.56341294,0.61559005

>  <Name>
ligand

>  <RI>
0

>  <Rbt.Current_Directory>
/home/itssahil/PROJECTS/Mol_Feturizer/New_Systems/rnas/4p3s

>  <Rbt.Executable>
rbdock ($Id: //depot/dev/client3/rdock/2013.1/src/exe/rbdock.cxx#4 $)

>  <Rbt.Library>
libRbt.so (2013.1, Build901 2013/11/27)

>  <Rbt.Parameter_File>
/export/apps/rDock/src/rDock_2013.1_src/data/scripts/dock_solv.prm

>  <Rbt.Receptor>
prm/pocket_docking_6.prm

>  <SCORE>
-11.8552

>  <SCORE.INTER>
-9.10181

>  <SCORE.INTER.CONST>
1

>  <SCORE.INTER.POLAR>
0

>  <SCORE.INTER.ROT>
6

>  <SCORE.INTER.SOLV>
15.8907

>  <SCORE.INTER.VDW>
-18.9648

>  <SCORE.INTER.norm>
-0.2677

>  <SCORE.INTRA>
-2.75337

>  <SCORE.INTRA.DIHEDRAL>
-7.39791

>  <SCORE.INTRA.DIHEDRAL.0>
15.8194

>  <SCORE.INTRA.POLAR>
0

>  <SCORE.INTRA.POLAR.0>
0

>  <SCORE.INTRA.REPUL>
0

>  <SCORE.INTRA.REPUL.0>
0

>  <SCORE.INTRA.SOLV>
2.08638

>  <SCORE.INTRA.SOLV.lig_0>
-71.9159

>  <SCORE.INTRA.VDW>
-0.0976044

>  <SCORE.INTRA.VDW.0>
-3.53918

>  <SCORE.INTRA.norm>
-0.0809814

>  <SCORE.RESTR>
0

>  <SCORE.RESTR.CAVITY>
0

>  <SCORE.RESTR.norm>
0

>  <SCORE.SYSTEM>
0

>  <SCORE.SYSTEM.CONST>
0

>  <SCORE.SYSTEM.DIHEDRAL>
0

>  <SCORE.SYSTEM.SOLV>
0

>  <SCORE.SYSTEM.norm>
0

>  <SCORE.heavy>
34

>  <SCORE.norm>
-0.348682

>  <RMSD>
6.079

$$$$
ligand
 OpenBabel01301917533D
libRbt.so/2013.1/901 2013/11/27
 34 36  0  0  0  0  0  0  0  0999 V2000
   17.6096   22.9080   33.3673 C   0  0  2  0  0  0  0  0  0  0  0  0
   16.9488   24.1606   33.1608 O   0  0  0  0  0  0  0  0  0  0  0  0
   15.9862   27.7920   35.2316 C   0  0  2  0  0  0  0  0  0  0  0  0
   15.6994   28.7574   36.3014 N   0  0  0  0  0  0  0  0  0  0  0  0
   18.3567   29.1002   33.8313 C   0  0  2  0  0  0  0  0  0  0  0  0
   17.7486   22.1936   31.9705 C   0  0  2  0  0  0  0  0  0  0  0  0
   18.5138   23.0265   31.0288 N   0  0  0  0  0  0  0  0  0  0  0  0
   15.0123   26.5724   35.4138 C   0  0  0  0  0  0  0  0  0  0  0  0
   19.6409   30.0199   33.8100 C   0  0  2  0  0  0  0  0  0  0  0  0
   20.8137   29.2297   33.9028 O   0  0  0  0  0  0  0  0  0  0  0  0
   16.3393   21.8792   31.3841 C   0  0  1  0  0  0  0  0  0  0  0  0
   16.4617   21.2262   30.1070 O   0  0  0  0  0  0  0  0  0  0  0  0
   15.3062   25.5509   34.2595 C   0  0  2  0  0  0  0  0  0  0  0  0
   14.4179   24.3590   34.3734 N   0  0  0  0  0  0  0  0  0  0  0  0
   19.5537   31.0131   35.0300 C   0  0  1  0  0  0  0  0  0  0  0  0
   20.7475   31.8805   35.0887 N   0  0  0  0  0  0  0  0  0  0  0  0
   15.5722   21.0025   32.4015 C   0  0  2  0  0  0  0  0  0  0  0  0
   14.2778   20.6917   31.8763 O   0  0  0  0  0  0  0  0  0  0  0  0
   16.7905   25.0772   34.3023 C   0  0  2  0  0  0  0  0  0  0  0  0
   18.2603   31.8768   34.8912 C   0  0  1  0  0  0  0  0  0  0  0  0
   18.3529   32.6357   33.6899 O   0  0  0  0  0  0  0  0  0  0  0  0
   15.4702   21.7885   33.7792 C   0  0  2  0  0  0  0  0  0  0  0  0
   16.8178   22.1093   34.2998 O   0  0  0  0  0  0  0  0  0  0  0  0
   17.7234   26.3133   34.1874 C   0  0  2  0  0  0  0  0  0  0  0  0
   19.0723   25.8563   34.2607 O   0  0  0  0  0  0  0  0  0  0  0  0
   17.0224   30.9255   34.8268 C   0  0  0  0  0  0  0  0  0  0  0  0
   17.1519   29.9459   33.7215 O   0  0  0  0  0  0  0  0  0  0  0  0
   14.7149   20.9823   34.8747 C   0  0  2  0  0  0  0  0  0  0  0  0
   15.0956   19.6044   34.7931 O   0  0  0  0  0  0  0  0  0  0  0  0
   17.4970   27.3158   35.3459 C   0  0  1  0  0  0  0  0  0  0  0  0
   18.3901   28.4447   35.1395 O   0  0  0  0  0  0  0  0  0  0  0  0
   13.2134   21.0591   34.7073 C   0  0  0  0  0  0  0  0  0  0  0  0
   18.0923   32.8569   36.0531 C   0  0  0  0  0  0  0  0  0  0  0  0
   21.6200   31.3629   36.1711 C   0  0  0  0  0  0  0  0  0  0  0  0
  1  2  1  6  0  0  0
  1  6  1  0  0  0  0
  1 23  1  0  0  0  0
  3  4  1  1  0  0  0
  3  8  1  0  0  0  0
  3 30  1  0  0  0  0
  5  9  1  0  0  0  0
  5 27  1  0  0  0  0
  5 31  1  1  0  0  0
  6  7  1  6  0  0  0
  6 11  1  0  0  0  0
  8 13  1  0  0  0  0
  9 10  1  1  0  0  0
  9 15  1  0  0  0  0
 11 12  1  6  0  0  0
 11 17  1  0  0  0  0
 13 14  1  1  0  0  0
 13 19  1  0  0  0  0
 15 16  1  6  0  0  0
 15 20  1  0  0  0  0
 16 34  1  0  0  0  0
 17 18  1  6  0  0  0
 17 22  1  0  0  0  0
 19  2  1  6  0  0  0
 19 24  1  0  0  0  0
 20 21  1  6  0  0  0
 20 26  1  0  0  0  0
 20 33  1  0  0  0  0
 22 23  1  1  0  0  0
 22 28  1  0  0  0  0
 24 25  1  1  0  0  0
 24 30  1  0  0  0  0
 26 27  1  0  0  0  0
 28 29  1  6  0  0  0
 28 32  1  0  0  0  0
 30 31  1  6  0  0  0
M  END
>  <CHROM.1>
-175.18641390,-133.38455716,-103.34080761,39.81174693,-63.09759807,-166.88011495
17.19438943,26.14879052,34.03647452,-1.96352388,0.53507660,0.40164360

>  <Name>
ligand

>  <RI>
0

>  <Rbt.Current_Directory>
/home/itssahil/PROJECTS/Mol_Feturizer/New_Systems/rnas/4p3s

>  <Rbt.Executable>
rbdock ($Id: //depot/dev/client3/rdock/2013.1/src/exe/rbdock.cxx#4 $)

>  <Rbt.Library>
libRbt.so (2013.1, Build901 2013/11/27)

>  <Rbt.Parameter_File>
/export/apps/rDock/src/rDock_2013.1_src/data/scripts/dock_solv.prm

>  <Rbt.Receptor>
prm/pocket_docking_7.prm

>  <SCORE>
-10.6437

>  <SCORE.INTER>
-10.1563

>  <SCORE.INTER.CONST>
1

>  <SCORE.INTER.POLAR>
0

>  <SCORE.INTER.ROT>
6

>  <SCORE.INTER.SOLV>
15.7305

>  <SCORE.INTER.VDW>
-19.6144

>  <SCORE.INTER.norm>
-0.298716

>  <SCORE.INTRA>
-0.48737

>  <SCORE.INTRA.DIHEDRAL>
-6.06547

>  <SCORE.INTRA.DIHEDRAL.0>
15.8194

>  <SCORE.INTRA.POLAR>
0

>  <SCORE.INTRA.POLAR.0>
0

>  <SCORE.INTRA.REPUL>
0

>  <SCORE.INTRA.REPUL.0>
0

>  <SCORE.INTRA.SOLV>
3.83351

>  <SCORE.INTRA.SOLV.lig_0>
-71.9159

>  <SCORE.INTRA.VDW>
0.628612

>  <SCORE.INTRA.VDW.0>
-3.53918

>  <SCORE.INTRA.norm>
-0.0143344

>  <SCORE.RESTR>
0

>  <SCORE.RESTR.CAVITY>
0

>  <SCORE.RESTR.norm>
0

>  <SCORE.SYSTEM>
0

>  <SCORE.SYSTEM.CONST>
0

>  <SCORE.SYSTEM.DIHEDRAL>
0

>  <SCORE.SYSTEM.SOLV>
0

>  <SCORE.SYSTEM.norm>
0

>  <SCORE.heavy>
34

>  <SCORE.norm>
-0.31305

>  <RMSD>
6.142

$$$$
ligand
 OpenBabel01301917533D
libRbt.so/2013.1/901 2013/11/27
 34 36  0  0  0  0  0  0  0  0999 V2000
   17.9102   33.9018   35.4459 C   0  0  2  0  0  0  0  0  0  0  0  0
   17.9276   34.4134   36.7824 O   0  0  0  0  0  0  0  0  0  0  0  0
   22.1401   35.2064   36.9497 C   0  0  2  0  0  0  0  0  0  0  0  0
   23.4533   35.7013   37.3846 N   0  0  0  0  0  0  0  0  0  0  0  0
   23.8265   33.2141   38.5997 C   0  0  2  0  0  0  0  0  0  0  0  0
   16.4457   34.0503   34.8857 C   0  0  2  0  0  0  0  0  0  0  0  0
   16.0185   35.4585   34.8999 N   0  0  0  0  0  0  0  0  0  0  0  0
   21.1725   36.4405   36.8503 C   0  0  0  0  0  0  0  0  0  0  0  0
   24.4222   31.7603   38.7648 C   0  0  2  0  0  0  0  0  0  0  0  0
   24.5127   31.1195   37.5040 O   0  0  0  0  0  0  0  0  0  0  0  0
   15.4584   33.1827   35.7234 C   0  0  1  0  0  0  0  0  0  0  0  0
   14.1183   33.3156   35.2148 O   0  0  0  0  0  0  0  0  0  0  0  0
   19.7757   35.9135   36.3671 C   0  0  2  0  0  0  0  0  0  0  0  0
   18.8005   37.0355   36.2554 N   0  0  0  0  0  0  0  0  0  0  0  0
   23.4731   30.9469   39.7239 C   0  0  1  0  0  0  0  0  0  0  0  0
   23.9563   29.5616   39.8916 N   0  0  0  0  0  0  0  0  0  0  0  0
   15.9418   31.7142   35.6798 C   0  0  2  0  0  0  0  0  0  0  0  0
   15.0408   30.8974   36.4341 O   0  0  0  0  0  0  0  0  0  0  0  0
   19.2096   34.8526   37.3586 C   0  0  2  0  0  0  0  0  0  0  0  0
   23.4056   31.6704   41.1060 C   0  0  1  0  0  0  0  0  0  0  0  0
   24.7139   31.6907   41.6675 O   0  0  0  0  0  0  0  0  0  0  0  0
   17.4193   31.6447   36.2613 C   0  0  2  0  0  0  0  0  0  0  0  0
   18.3325   32.5034   35.4746 O   0  0  0  0  0  0  0  0  0  0  0  0
   20.2211   33.6810   37.4835 C   0  0  2  0  0  0  0  0  0  0  0  0
   19.6947   32.7414   38.4184 O   0  0  0  0  0  0  0  0  0  0  0  0
   22.8966   33.1313   40.8869 C   0  0  0  0  0  0  0  0  0  0  0  0
   23.7543   33.8626   39.9238 O   0  0  0  0  0  0  0  0  0  0  0  0
   17.9986   30.2009   36.2552 C   0  0  2  0  0  0  0  0  0  0  0  0
   19.3043   30.2139   36.8426 O   0  0  0  0  0  0  0  0  0  0  0  0
   21.5954   34.1601   38.0130 C   0  0  1  0  0  0  0  0  0  0  0  0
   22.4779   33.0058   38.0706 O   0  0  0  0  0  0  0  0  0  0  0  0
   18.1258   29.6422   34.8550 C   0  0  0  0  0  0  0  0  0  0  0  0
   22.4838   30.9499   42.0910 C   0  0  0  0  0  0  0  0  0  0  0  0
   23.1713   28.7026   38.9714 C   0  0  0  0  0  0  0  0  0  0  0  0
  1  2  1  1  0  0  0
  1  6  1  0  0  0  0
  1 23  1  0  0  0  0
  3  4  1  1  0  0  0
  3  8  1  0  0  0  0
  3 30  1  0  0  0  0
  5  9  1  0  0  0  0
  5 27  1  0  0  0  0
  5 31  1  1  0  0  0
  6  7  1  1  0  0  0
  6 11  1  0  0  0  0
  8 13  1  0  0  0  0
  9 10  1  6  0  0  0
  9 15  1  0  0  0  0
 11 12  1  6  0  0  0
 11 17  1  0  0  0  0
 13 14  1  1  0  0  0
 13 19  1  0  0  0  0
 15 16  1  1  0  0  0
 15 20  1  0  0  0  0
 16 34  1  0  0  0  0
 17 18  1  1  0  0  0
 17 22  1  0  0  0  0
 19  2  1  6  0  0  0
 19 24  1  0  0  0  0
 20 21  1  1  0  0  0
 20 26  1  0  0  0  0
 20 33  1  0  0  0  0
 22 23  1  6  0  0  0
 22 28  1  0  0  0  0
 24 25  1  1  0  0  0
 24 30  1  0  0  0  0
 26 27  1  0  0  0  0
 28 29  1  6  0  0  0
 28 32  1  0  0  0  0
 30 31  1  6  0  0  0
M  END
>  <CHROM.1>
-157.81202077,55.56857787,-98.60434420,-177.61979197,67.07779855,170.37889640
20.26865534,32.79460770,37.57228416,-2.88620000,0.49007180,2.94472468

>  <Name>
ligand

>  <RI>
0

>  <Rbt.Current_Directory>
/home/itssahil/PROJECTS/Mol_Feturizer/New_Systems/rnas/4p3s

>  <Rbt.Executable>
rbdock ($Id: //depot/dev/client3/rdock/2013.1/src/exe/rbdock.cxx#4 $)

>  <Rbt.Library>
libRbt.so (2013.1, Build901 2013/11/27)

>  <Rbt.Parameter_File>
/export/apps/rDock/src/rDock_2013.1_src/data/scripts/dock_solv.prm

>  <Rbt.Receptor>
prm/pocket_docking_6.prm

>  <SCORE>
-8.03664

>  <SCORE.INTER>
-4.12628

>  <SCORE.INTER.CONST>
1

>  <SCORE.INTER.POLAR>
0

>  <SCORE.INTER.ROT>
6

>  <SCORE.INTER.SOLV>
12.0756

>  <SCORE.INTER.VDW>
-14.3761

>  <SCORE.INTER.norm>
-0.121361

>  <SCORE.INTRA>
-3.91391

>  <SCORE.INTRA.DIHEDRAL>
-11.8687

>  <SCORE.INTRA.DIHEDRAL.0>
15.8194

>  <SCORE.INTRA.POLAR>
0

>  <SCORE.INTRA.POLAR.0>
0

>  <SCORE.INTRA.REPUL>
0

>  <SCORE.INTRA.REPUL.0>
0

>  <SCORE.INTRA.SOLV>
2.19911

>  <SCORE.INTRA.SOLV.lig_0>
-71.9159

>  <SCORE.INTRA.VDW>
0.920877

>  <SCORE.INTRA.VDW.0>
-3.53918

>  <SCORE.INTRA.norm>
-0.115115

>  <SCORE.RESTR>
0.00354987

>  <SCORE.RESTR.CAVITY>
0.00354987

>  <SCORE.RESTR.norm>
0.000104408

>  <SCORE.SYSTEM>
0

>  <SCORE.SYSTEM.CONST>
0

>  <SCORE.SYSTEM.DIHEDRAL>
0

>  <SCORE.SYSTEM.SOLV>
0

>  <SCORE.SYSTEM.norm>
0

>  <SCORE.heavy>
34

>  <SCORE.norm>
-0.236372

>  <RMSD>
6.157

$$$$
ligand
 OpenBabel01301917533D
libRbt.so/2013.1/901 2013/11/27
 34 36  0  0  0  0  0  0  0  0999 V2000
   17.8953   22.7615   33.0129 C   0  0  2  0  0  0  0  0  0  0  0  0
   17.0420   23.9061   32.9136 O   0  0  0  0  0  0  0  0  0  0  0  0
   16.1807   27.5136   35.0692 C   0  0  2  0  0  0  0  0  0  0  0  0
   15.9277   28.4627   36.1618 N   0  0  0  0  0  0  0  0  0  0  0  0
   20.0301   27.8368   35.0280 C   0  0  2  0  0  0  0  0  0  0  0  0
   18.2030   22.2543   31.5539 C   0  0  2  0  0  0  0  0  0  0  0  0
   18.8517   23.3084   30.7576 N   0  0  0  0  0  0  0  0  0  0  0  0
   15.1847   26.3103   35.2403 C   0  0  0  0  0  0  0  0  0  0  0  0
   20.3073   27.5459   36.5557 C   0  0  2  0  0  0  0  0  0  0  0  0
   19.5874   26.4001   36.9771 O   0  0  0  0  0  0  0  0  0  0  0  0
   16.8887   21.7893   30.8572 C   0  0  1  0  0  0  0  0  0  0  0  0
   17.1654   21.3250   29.5230 O   0  0  0  0  0  0  0  0  0  0  0  0
   15.4425   25.3066   34.0620 C   0  0  2  0  0  0  0  0  0  0  0  0
   14.5319   24.1307   34.1643 N   0  0  0  0  0  0  0  0  0  0  0  0
   19.8588   28.8081   37.3851 C   0  0  1  0  0  0  0  0  0  0  0  0
   20.0587   28.5858   38.8313 N   0  0  0  0  0  0  0  0  0  0  0  0
   16.2426   20.6829   31.7235 C   0  0  2  0  0  0  0  0  0  0  0  0
   15.0387   20.2326   31.0944 O   0  0  0  0  0  0  0  0  0  0  0  0
   16.9174   24.8025   34.0752 C   0  0  2  0  0  0  0  0  0  0  0  0
   20.6785   30.0482   36.9071 C   0  0  1  0  0  0  0  0  0  0  0  0
   22.0575   29.8011   37.1613 O   0  0  0  0  0  0  0  0  0  0  0  0
   15.9601   21.2684   33.1738 C   0  0  2  0  0  0  0  0  0  0  0  0
   17.2149   21.7376   33.8025 O   0  0  0  0  0  0  0  0  0  0  0  0
   17.8735   26.0218   33.9723 C   0  0  2  0  0  0  0  0  0  0  0  0
   19.2137   25.5365   34.0181 O   0  0  0  0  0  0  0  0  0  0  0  0
   20.4460   30.2471   35.3748 C   0  0  0  0  0  0  0  0  0  0  0  0
   20.7999   29.0257   34.6126 O   0  0  0  0  0  0  0  0  0  0  0  0
   15.3110   20.2234   34.1261 C   0  0  2  0  0  0  0  0  0  0  0  0
   14.1386   19.6841   33.5059 O   0  0  0  0  0  0  0  0  0  0  0  0
   17.6829   27.0050   35.1535 C   0  0  1  0  0  0  0  0  0  0  0  0
   18.5959   28.1197   34.9574 O   0  0  0  0  0  0  0  0  0  0  0  0
   14.8976   20.8336   35.4472 C   0  0  0  0  0  0  0  0  0  0  0  0
   20.2853   31.3236   37.6539 C   0  0  0  0  0  0  0  0  0  0  0  0
   18.7321   28.2826   39.4219 C   0  0  0  0  0  0  0  0  0  0  0  0
  1  2  1  6  0  0  0
  1  6  1  0  0  0  0
  1 23  1  0  0  0  0
  3  4  1  1  0  0  0
  3  8  1  0  0  0  0
  3 30  1  0  0  0  0
  5  9  1  0  0  0  0
  5 27  1  0  0  0  0
  5 31  1  1  0  0  0
  6  7  1  6  0  0  0
  6 11  1  0  0  0  0
  8 13  1  0  0  0  0
  9 10  1  1  0  0  0
  9 15  1  0  0  0  0
 11 12  1  6  0  0  0
 11 17  1  0  0  0  0
 13 14  1  1  0  0  0
 13 19  1  0  0  0  0
 15 16  1  1  0  0  0
 15 20  1  0  0  0  0
 16 34  1  0  0  0  0
 17 18  1  6  0  0  0
 17 22  1  0  0  0  0
 19  2  1  6  0  0  0
 19 24  1  0  0  0  0
 20 21  1  1  0  0  0
 20 26  1  0  0  0  0
 20 33  1  0  0  0  0
 22 23  1  1  0  0  0
 22 28  1  0  0  0  0
 24 25  1  1  0  0  0
 24 30  1  0  0  0  0
 26 27  1  0  0  0  0
 28 29  1  6  0  0  0
 28 32  1  0  0  0  0
 30 31  1  6  0  0  0
M  END
>  <CHROM.1>
-162.40568125,-145.26837027,-102.54579195,-53.73206209,178.89593631,-71.06951967
17.81119921,25.30840070,34.53453229,-2.09715556,0.65237778,0.85819334

>  <Name>
ligand

>  <RI>
0

>  <Rbt.Current_Directory>
/home/itssahil/PROJECTS/Mol_Feturizer/New_Systems/rnas/4p3s

>  <Rbt.Executable>
rbdock ($Id: //depot/dev/client3/rdock/2013.1/src/exe/rbdock.cxx#4 $)

>  <Rbt.Library>
libRbt.so (2013.1, Build901 2013/11/27)

>  <Rbt.Parameter_File>
/export/apps/rDock/src/rDock_2013.1_src/data/scripts/dock_solv.prm

>  <Rbt.Receptor>
prm/pocket_docking_8.prm

>  <SCORE>
-11.1453

>  <SCORE.INTER>
-9.05747

>  <SCORE.INTER.CONST>
1

>  <SCORE.INTER.POLAR>
0

>  <SCORE.INTER.ROT>
6

>  <SCORE.INTER.SOLV>
16.3711

>  <SCORE.INTER.VDW>
-19.0954

>  <SCORE.INTER.norm>
-0.266396

>  <SCORE.INTRA>
-2.08782

>  <SCORE.INTRA.DIHEDRAL>
-8.09378

>  <SCORE.INTRA.DIHEDRAL.0>
15.8194

>  <SCORE.INTRA.POLAR>
0

>  <SCORE.INTRA.POLAR.0>
0

>  <SCORE.INTRA.REPUL>
0

>  <SCORE.INTRA.REPUL.0>
0

>  <SCORE.INTRA.SOLV>
1.67886

>  <SCORE.INTRA.SOLV.lig_0>
-71.9159

>  <SCORE.INTRA.VDW>
1.11964

>  <SCORE.INTRA.VDW.0>
-3.53918

>  <SCORE.INTRA.norm>
-0.0614065

>  <SCORE.RESTR>
0

>  <SCORE.RESTR.CAVITY>
0

>  <SCORE.RESTR.norm>
0

>  <SCORE.SYSTEM>
0

>  <SCORE.SYSTEM.CONST>
0

>  <SCORE.SYSTEM.DIHEDRAL>
0

>  <SCORE.SYSTEM.SOLV>
0

>  <SCORE.SYSTEM.norm>
0

>  <SCORE.heavy>
34

>  <SCORE.norm>
-0.327803

>  <RMSD>
6.169

$$$$
ligand
 OpenBabel01301917533D
libRbt.so/2013.1/901 2013/11/27
 34 36  0  0  0  0  0  0  0  0999 V2000
   22.0158   27.4503   37.5998 C   0  0  2  0  0  0  0  0  0  0  0  0
   22.0758   28.7399   38.2174 O   0  0  0  0  0  0  0  0  0  0  0  0
   23.5569   32.6060   37.0942 C   0  0  2  0  0  0  0  0  0  0  0  0
   24.4550   33.6938   36.6832 N   0  0  0  0  0  0  0  0  0  0  0  0
   21.4095   32.4457   34.7968 C   0  0  2  0  0  0  0  0  0  0  0  0
   20.9507   26.5871   38.3751 C   0  0  2  0  0  0  0  0  0  0  0  0
   19.6282   27.2319   38.3425 N   0  0  0  0  0  0  0  0  0  0  0  0
   24.1696   31.9388   38.3782 C   0  0  0  0  0  0  0  0  0  0  0  0
   20.8534   31.9478   33.4046 C   0  0  2  0  0  0  0  0  0  0  0  0
   21.0455   30.5502   33.2692 O   0  0  0  0  0  0  0  0  0  0  0  0
   21.4043   26.3702   39.8503 C   0  0  1  0  0  0  0  0  0  0  0  0
   20.4334   25.5816   40.5629 O   0  0  0  0  0  0  0  0  0  0  0  0
   23.1999   30.7899   38.8275 C   0  0  2  0  0  0  0  0  0  0  0  0
   23.7240   30.1052   40.0436 N   0  0  0  0  0  0  0  0  0  0  0  0
   21.6223   32.7176   32.2651 C   0  0  1  0  0  0  0  0  0  0  0  0
   21.1729   32.2697   30.9316 N   0  0  0  0  0  0  0  0  0  0  0  0
   22.7933   25.6900   39.8384 C   0  0  2  0  0  0  0  0  0  0  0  0
   23.2236   25.4703   41.1855 O   0  0  0  0  0  0  0  0  0  0  0  0
   23.0255   29.7355   37.6930 C   0  0  2  0  0  0  0  0  0  0  0  0
   21.3798   34.2509   32.4341 C   0  0  1  0  0  0  0  0  0  0  0  0
   19.9854   34.5036   32.2956 O   0  0  0  0  0  0  0  0  0  0  0  0
   23.8104   26.6179   39.0444 C   0  0  2  0  0  0  0  0  0  0  0  0
   23.3426   26.8413   37.6583 O   0  0  0  0  0  0  0  0  0  0  0  0
   22.4827   30.4411   36.4206 C   0  0  2  0  0  0  0  0  0  0  0  0
   22.3624   29.4621   35.3906 O   0  0  0  0  0  0  0  0  0  0  0  0
   21.8617   34.6846   33.8558 C   0  0  0  0  0  0  0  0  0  0  0  0
   21.1864   33.8998   34.9169 O   0  0  0  0  0  0  0  0  0  0  0  0
   25.2424   26.0141   38.9732 C   0  0  2  0  0  0  0  0  0  0  0  0
   25.1526   24.5851   38.9778 O   0  0  0  0  0  0  0  0  0  0  0  0
   23.4462   31.5446   35.9181 C   0  0  1  0  0  0  0  0  0  0  0  0
   22.8446   32.1623   34.7471 O   0  0  0  0  0  0  0  0  0  0  0  0
   26.0965   26.4287   40.1510 C   0  0  0  0  0  0  0  0  0  0  0  0
   22.1129   35.0724   31.3727 C   0  0  0  0  0  0  0  0  0  0  0  0
   22.2924   31.5165   30.3151 C   0  0  0  0  0  0  0  0  0  0  0  0
  1  2  1  1  0  0  0
  1  6  1  0  0  0  0
  1 23  1  0  0  0  0
  3  4  1  6  0  0  0
  3  8  1  0  0  0  0
  3 30  1  0  0  0  0
  5  9  1  0  0  0  0
  5 27  1  0  0  0  0
  5 31  1  6  0  0  0
  6  7  1  1  0  0  0
  6 11  1  0  0  0  0
  8 13  1  0  0  0  0
  9 10  1  6  0  0  0
  9 15  1  0  0  0  0
 11 12  1  1  0  0  0
 11 17  1  0  0  0  0
 13 14  1  1  0  0  0
 13 19  1  0  0  0  0
 15 16  1  6  0  0  0
 15 20  1  0  0  0  0
 16 34  1  0  0  0  0
 17 18  1  1  0  0  0
 17 22  1  0  0  0  0
 19  2  1  1  0  0  0
 19 24  1  0  0  0  0
 20 21  1  6  0  0  0
 20 26  1  0  0  0  0
 20 33  1  0  0  0  0
 22 23  1  6  0  0  0
 22 28  1  0  0  0  0
 24 25  1  6  0  0  0
 24 30  1  0  0  0  0
 26 27  1  0  0  0  0
 28 29  1  1  0  0  0
 28 32  1  0  0  0  0
 30 31  1  6  0  0  0
M  END
>  <CHROM.1>
178.72636289,-161.14106051,-110.62510643,30.40968686,-73.04062571,-134.74811748
22.47701166,29.97224774,36.45712412,1.32891157,0.86899580,2.56050710

>  <Name>
ligand

>  <RI>
0

>  <Rbt.Current_Directory>
/home/itssahil/PROJECTS/Mol_Feturizer/New_Systems/rnas/4p3s

>  <Rbt.Executable>
rbdock ($Id: //depot/dev/client3/rdock/2013.1/src/exe/rbdock.cxx#4 $)

>  <Rbt.Library>
libRbt.so (2013.1, Build901 2013/11/27)

>  <Rbt.Parameter_File>
/export/apps/rDock/src/rDock_2013.1_src/data/scripts/dock_solv.prm

>  <Rbt.Receptor>
prm/blind_docking_80.prm

>  <SCORE>
5.69808

>  <SCORE.INTER>
-1.66505

>  <SCORE.INTER.CONST>
1

>  <SCORE.INTER.POLAR>
0

>  <SCORE.INTER.ROT>
6

>  <SCORE.INTER.SOLV>
17.2654

>  <SCORE.INTER.VDW>
-14.4652

>  <SCORE.INTER.norm>
-0.048972

>  <SCORE.INTRA>
-0.601283

>  <SCORE.INTRA.DIHEDRAL>
-3.42754

>  <SCORE.INTRA.DIHEDRAL.0>
15.8194

>  <SCORE.INTRA.POLAR>
0

>  <SCORE.INTRA.POLAR.0>
0

>  <SCORE.INTRA.REPUL>
0

>  <SCORE.INTRA.REPUL.0>
0

>  <SCORE.INTRA.SOLV>
0.580091

>  <SCORE.INTRA.SOLV.lig_0>
-71.9159

>  <SCORE.INTRA.VDW>
0.822443

>  <SCORE.INTRA.VDW.0>
-3.53918

>  <SCORE.INTRA.norm>
-0.0176848

>  <SCORE.RESTR>
7.96441

>  <SCORE.RESTR.CAVITY>
7.96441

>  <SCORE.RESTR.norm>
0.234247

>  <SCORE.SYSTEM>
0

>  <SCORE.SYSTEM.CONST>
0

>  <SCORE.SYSTEM.DIHEDRAL>
0

>  <SCORE.SYSTEM.SOLV>
0

>  <SCORE.SYSTEM.norm>
0

>  <SCORE.heavy>
34

>  <SCORE.norm>
0.16759

>  <RMSD>
6.172

$$$$
ligand
 OpenBabel01301917533D
libRbt.so/2013.1/901 2013/11/27
 34 36  0  0  0  0  0  0  0  0999 V2000
   21.9114   28.0277   38.7205 C   0  0  2  0  0  0  0  0  0  0  0  0
   22.0069   29.1290   39.6294 O   0  0  0  0  0  0  0  0  0  0  0  0
   22.8466   33.3015   39.0928 C   0  0  2  0  0  0  0  0  0  0  0  0
   23.5487   34.5616   38.8142 N   0  0  0  0  0  0  0  0  0  0  0  0
   22.5498   34.3658   36.1921 C   0  0  2  0  0  0  0  0  0  0  0  0
   20.9316   26.9639   39.3440 C   0  0  2  0  0  0  0  0  0  0  0  0
   19.6020   27.5494   39.5796 N   0  0  0  0  0  0  0  0  0  0  0  0
   23.6619   32.5327   40.1943 C   0  0  0  0  0  0  0  0  0  0  0  0
   21.4039   34.9562   35.2791 C   0  0  2  0  0  0  0  0  0  0  0  0
   20.2735   35.2940   36.0645 O   0  0  0  0  0  0  0  0  0  0  0  0
   21.5167   26.4100   40.6782 C   0  0  1  0  0  0  0  0  0  0  0  0
   20.6240   25.4372   41.2517 O   0  0  0  0  0  0  0  0  0  0  0  0
   22.9009   31.1960   40.5050 C   0  0  2  0  0  0  0  0  0  0  0  0
   23.6247   30.4080   41.5430 N   0  0  0  0  0  0  0  0  0  0  0  0
   21.0189   33.8666   34.2082 C   0  0  1  0  0  0  0  0  0  0  0  0
   19.9225   34.3444   33.3419 N   0  0  0  0  0  0  0  0  0  0  0  0
   22.9090   25.8035   40.3854 C   0  0  2  0  0  0  0  0  0  0  0  0
   23.4596   25.2774   41.5971 O   0  0  0  0  0  0  0  0  0  0  0  0
   22.7614   30.3253   39.2198 C   0  0  2  0  0  0  0  0  0  0  0  0
   22.2799   33.5271   33.3521 C   0  0  1  0  0  0  0  0  0  0  0  0
   22.6941   34.7082   32.6734 O   0  0  0  0  0  0  0  0  0  0  0  0
   23.8384   26.9329   39.7637 C   0  0  2  0  0  0  0  0  0  0  0  0
   23.2469   27.4708   38.5183 O   0  0  0  0  0  0  0  0  0  0  0  0
   22.0110   31.1400   38.1313 C   0  0  2  0  0  0  0  0  0  0  0  0
   21.9247   30.3339   36.9581 O   0  0  0  0  0  0  0  0  0  0  0  0
   23.4169   33.0316   34.3025 C   0  0  0  0  0  0  0  0  0  0  0  0
   23.7175   34.0343   35.3524 O   0  0  0  0  0  0  0  0  0  0  0  0
   25.2672   26.4164   39.4289 C   0  0  2  0  0  0  0  0  0  0  0  0
   25.1705   25.1279   38.8120 O   0  0  0  0  0  0  0  0  0  0  0  0
   22.7668   32.4399   37.7610 C   0  0  1  0  0  0  0  0  0  0  0  0
   21.9797   33.1437   36.7611 O   0  0  0  0  0  0  0  0  0  0  0  0
   26.1278   26.2751   40.6650 C   0  0  0  0  0  0  0  0  0  0  0  0
   21.9917   32.4572   32.2980 C   0  0  0  0  0  0  0  0  0  0  0  0
   18.6749   33.6851   33.7996 C   0  0  0  0  0  0  0  0  0  0  0  0
  1  2  1  1  0  0  0
  1  6  1  0  0  0  0
  1 23  1  0  0  0  0
  3  4  1  6  0  0  0
  3  8  1  0  0  0  0
  3 30  1  0  0  0  0
  5  9  1  0  0  0  0
  5 27  1  0  0  0  0
  5 31  1  6  0  0  0
  6  7  1  1  0  0  0
  6 11  1  0  0  0  0
  8 13  1  0  0  0  0
  9 10  1  1  0  0  0
  9 15  1  0  0  0  0
 11 12  1  6  0  0  0
 11 17  1  0  0  0  0
 13 14  1  1  0  0  0
 13 19  1  0  0  0  0
 15 16  1  6  0  0  0
 15 20  1  0  0  0  0
 16 34  1  0  0  0  0
 17 18  1  1  0  0  0
 17 22  1  0  0  0  0
 19  2  1  1  0  0  0
 19 24  1  0  0  0  0
 20 21  1  6  0  0  0
 20 26  1  0  0  0  0
 20 33  1  0  0  0  0
 22 23  1  6  0  0  0
 22 28  1  0  0  0  0
 24 25  1  6  0  0  0
 24 30  1  0  0  0  0
 26 27  1  0  0  0  0
 28 29  1  1  0  0  0
 28 32  1  0  0  0  0
 30 31  1  6  0  0  0
M  END
>  <CHROM.1>
-173.98973785,-169.50138781,-102.72785775,42.98550515,68.65316198,-174.07729047
22.43058916,30.57943620,37.75475710,1.26946838,1.02020156,2.75489265

>  <Name>
ligand

>  <RI>
0

>  <Rbt.Current_Directory>
/home/itssahil/PROJECTS/Mol_Feturizer/New_Systems/rnas/4p3s

>  <Rbt.Executable>
rbdock ($Id: //depot/dev/client3/rdock/2013.1/src/exe/rbdock.cxx#4 $)

>  <Rbt.Library>
libRbt.so (2013.1, Build901 2013/11/27)

>  <Rbt.Parameter_File>
/export/apps/rDock/src/rDock_2013.1_src/data/scripts/dock_solv.prm

>  <Rbt.Receptor>
prm/pocket_docking_6.prm

>  <SCORE>
-10.0549

>  <SCORE.INTER>
-4.16787

>  <SCORE.INTER.CONST>
1

>  <SCORE.INTER.POLAR>
0

>  <SCORE.INTER.ROT>
6

>  <SCORE.INTER.SOLV>
10.4296

>  <SCORE.INTER.VDW>
-13.8551

>  <SCORE.INTER.norm>
-0.122584

>  <SCORE.INTRA>
-5.88706

>  <SCORE.INTRA.DIHEDRAL>
-12.5258

>  <SCORE.INTRA.DIHEDRAL.0>
15.8194

>  <SCORE.INTRA.POLAR>
0

>  <SCORE.INTRA.POLAR.0>
0

>  <SCORE.INTRA.REPUL>
0

>  <SCORE.INTRA.REPUL.0>
0

>  <SCORE.INTRA.SOLV>
-0.372595

>  <SCORE.INTRA.SOLV.lig_0>
-71.9159

>  <SCORE.INTRA.VDW>
0.562124

>  <SCORE.INTRA.VDW.0>
-3.53918

>  <SCORE.INTRA.norm>
-0.173149

>  <SCORE.RESTR>
0

>  <SCORE.RESTR.CAVITY>
0

>  <SCORE.RESTR.norm>
0

>  <SCORE.SYSTEM>
0

>  <SCORE.SYSTEM.CONST>
0

>  <SCORE.SYSTEM.DIHEDRAL>
0

>  <SCORE.SYSTEM.SOLV>
0

>  <SCORE.SYSTEM.norm>
0

>  <SCORE.heavy>
34

>  <SCORE.norm>
-0.295733

>  <RMSD>
6.185

$$$$
ligand
 OpenBabel01301917533D
libRbt.so/2013.1/901 2013/11/27
 34 36  0  0  0  0  0  0  0  0999 V2000
   19.2110   27.6770   36.6349 C   0  0  2  0  0  0  0  0  0  0  0  0
   19.8319   28.9118   37.0064 O   0  0  0  0  0  0  0  0  0  0  0  0
   23.2420   29.6869   39.4908 C   0  0  2  0  0  0  0  0  0  0  0  0
   24.1008   29.8703   40.6687 N   0  0  0  0  0  0  0  0  0  0  0  0
   23.7427   25.8672   39.3523 C   0  0  2  0  0  0  0  0  0  0  0  0
   18.6198   27.8451   35.1847 C   0  0  2  0  0  0  0  0  0  0  0  0
   19.6782   28.1949   34.2237 N   0  0  0  0  0  0  0  0  0  0  0  0
   21.9938   30.6268   39.6574 C   0  0  0  0  0  0  0  0  0  0  0  0
   23.6027   25.6263   40.9073 C   0  0  2  0  0  0  0  0  0  0  0  0
   22.4625   26.3019   41.4093 O   0  0  0  0  0  0  0  0  0  0  0  0
   17.5092   28.9385   35.1795 C   0  0  1  0  0  0  0  0  0  0  0  0
   16.9661   29.0955   33.8556 O   0  0  0  0  0  0  0  0  0  0  0  0
   21.0871   30.4444   38.3898 C   0  0  2  0  0  0  0  0  0  0  0  0
   19.8743   31.3064   38.4826 N   0  0  0  0  0  0  0  0  0  0  0  0
   24.9080   26.1639   41.6068 C   0  0  1  0  0  0  0  0  0  0  0  0
   24.8250   26.0008   43.0722 N   0  0  0  0  0  0  0  0  0  0  0  0
   16.4191   28.5312   36.1984 C   0  0  2  0  0  0  0  0  0  0  0  0
   15.3820   29.5174   36.2005 O   0  0  0  0  0  0  0  0  0  0  0  0
   20.6378   28.9597   38.2378 C   0  0  2  0  0  0  0  0  0  0  0  0
   26.1423   25.3914   41.0427 C   0  0  1  0  0  0  0  0  0  0  0  0
   25.9910   24.0109   41.3570 O   0  0  0  0  0  0  0  0  0  0  0  0
   17.0886   28.3846   37.6324 C   0  0  2  0  0  0  0  0  0  0  0  0
   18.1643   27.3686   37.6065 O   0  0  0  0  0  0  0  0  0  0  0  0
   21.8955   28.0538   38.1436 C   0  0  2  0  0  0  0  0  0  0  0  0
   21.4577   26.7008   38.0372 O   0  0  0  0  0  0  0  0  0  0  0  0
   26.1927   25.5830   39.4928 C   0  0  0  0  0  0  0  0  0  0  0  0
   24.9290   25.1440   38.8537 O   0  0  0  0  0  0  0  0  0  0  0  0
   16.0677   27.9707   38.7310 C   0  0  2  0  0  0  0  0  0  0  0  0
   15.0352   28.9593   38.8121 O   0  0  0  0  0  0  0  0  0  0  0  0
   22.7842   28.1684   39.4068 C   0  0  1  0  0  0  0  0  0  0  0  0
   23.9428   27.3106   39.2160 O   0  0  0  0  0  0  0  0  0  0  0  0
   16.7109   27.8592   40.0957 C   0  0  0  0  0  0  0  0  0  0  0  0
   27.4563   25.8717   41.6605 C   0  0  0  0  0  0  0  0  0  0  0  0
   24.6542   27.3518   43.6607 C   0  0  0  0  0  0  0  0  0  0  0  0
  1  2  1  1  0  0  0
  1  6  1  0  0  0  0
  1 23  1  0  0  0  0
  3  4  1  1  0  0  0
  3  8  1  0  0  0  0
  3 30  1  0  0  0  0
  5  9  1  0  0  0  0
  5 27  1  0  0  0  0
  5 31  1  1  0  0  0
  6  7  1  6  0  0  0
  6 11  1  0  0  0  0
  8 13  1  0  0  0  0
  9 10  1  1  0  0  0
  9 15  1  0  0  0  0
 11 12  1  6  0  0  0
 11 17  1  0  0  0  0
 13 14  1  1  0  0  0
 13 19  1  0  0  0  0
 15 16  1  1  0  0  0
 15 20  1  0  0  0  0
 16 34  1  0  0  0  0
 17 18  1  1  0  0  0
 17 22  1  0  0  0  0
 19  2  1  6  0  0  0
 19 24  1  0  0  0  0
 20 21  1  1  0  0  0
 20 26  1  0  0  0  0
 20 33  1  0  0  0  0
 22 23  1  6  0  0  0
 22 28  1  0  0  0  0
 24 25  1  1  0  0  0
 24 30  1  0  0  0  0
 26 27  1  0  0  0  0
 28 29  1  1  0  0  0
 28 32  1  0  0  0  0
 30 31  1  6  0  0  0
M  END
>  <CHROM.1>
-170.97821260,-176.64140212,-108.62677721,-59.41653111,169.44742572,-74.67486195
21.23136561,27.73577346,38.81216875,-2.69436823,-0.37767710,1.44854541

>  <Name>
ligand

>  <RI>
0

>  <Rbt.Current_Directory>
/home/itssahil/PROJECTS/Mol_Feturizer/New_Systems/rnas/4p3s

>  <Rbt.Executable>
rbdock ($Id: //depot/dev/client3/rdock/2013.1/src/exe/rbdock.cxx#4 $)

>  <Rbt.Library>
libRbt.so (2013.1, Build901 2013/11/27)

>  <Rbt.Parameter_File>
/export/apps/rDock/src/rDock_2013.1_src/data/scripts/dock_solv.prm

>  <Rbt.Receptor>
prm/pocket_docking_7.prm

>  <SCORE>
-5.88851

>  <SCORE.INTER>
-0.340101

>  <SCORE.INTER.CONST>
1

>  <SCORE.INTER.POLAR>
0

>  <SCORE.INTER.ROT>
6

>  <SCORE.INTER.SOLV>
8.86891

>  <SCORE.INTER.VDW>
-10.783

>  <SCORE.INTER.norm>
-0.010003

>  <SCORE.INTRA>
-5.54841

>  <SCORE.INTRA.DIHEDRAL>
-12.6229

>  <SCORE.INTRA.DIHEDRAL.0>
15.8194

>  <SCORE.INTRA.POLAR>
0

>  <SCORE.INTRA.POLAR.0>
0

>  <SCORE.INTRA.REPUL>
0

>  <SCORE.INTRA.REPUL.0>
0

>  <SCORE.INTRA.SOLV>
-0.341753

>  <SCORE.INTRA.SOLV.lig_0>
-71.9159

>  <SCORE.INTRA.VDW>
0.933931

>  <SCORE.INTRA.VDW.0>
-3.53918

>  <SCORE.INTRA.norm>
-0.163189

>  <SCORE.RESTR>
0

>  <SCORE.RESTR.CAVITY>
0

>  <SCORE.RESTR.norm>
0

>  <SCORE.SYSTEM>
0

>  <SCORE.SYSTEM.CONST>
0

>  <SCORE.SYSTEM.DIHEDRAL>
0

>  <SCORE.SYSTEM.SOLV>
0

>  <SCORE.SYSTEM.norm>
0

>  <SCORE.heavy>
34

>  <SCORE.norm>
-0.173192

>  <RMSD>
6.212

$$$$
ligand
 OpenBabel01301917533D
libRbt.so/2013.1/901 2013/11/27
 34 36  0  0  0  0  0  0  0  0999 V2000
   17.8995   22.6762   32.9566 C   0  0  2  0  0  0  0  0  0  0  0  0
   17.0729   23.8406   32.8618 O   0  0  0  0  0  0  0  0  0  0  0  0
   16.1566   27.3926   35.0858 C   0  0  2  0  0  0  0  0  0  0  0  0
   15.8909   28.3171   36.1964 N   0  0  0  0  0  0  0  0  0  0  0  0
   19.9999   27.7806   35.0233 C   0  0  2  0  0  0  0  0  0  0  0  0
   18.1824   22.1584   31.4962 C   0  0  2  0  0  0  0  0  0  0  0  0
   18.8491   23.1949   30.6917 N   0  0  0  0  0  0  0  0  0  0  0  0
   15.1822   26.1693   35.2378 C   0  0  0  0  0  0  0  0  0  0  0  0
   20.3013   27.4563   36.5397 C   0  0  2  0  0  0  0  0  0  0  0  0
   19.6048   26.2891   36.9412 O   0  0  0  0  0  0  0  0  0  0  0  0
   16.8513   21.7234   30.8121 C   0  0  1  0  0  0  0  0  0  0  0  0
   17.1053   21.2494   29.4767 O   0  0  0  0  0  0  0  0  0  0  0  0
   15.4534   25.1919   34.0405 C   0  0  2  0  0  0  0  0  0  0  0  0
   14.5635   23.9988   34.1239 N   0  0  0  0  0  0  0  0  0  0  0  0
   19.8439   28.6902   37.4060 C   0  0  1  0  0  0  0  0  0  0  0  0
   20.0659   28.4352   38.8435 N   0  0  0  0  0  0  0  0  0  0  0  0
   16.1866   20.6346   31.6867 C   0  0  2  0  0  0  0  0  0  0  0  0
   14.9668   20.2118   31.0691 O   0  0  0  0  0  0  0  0  0  0  0  0
   16.9367   24.7133   34.0399 C   0  0  2  0  0  0  0  0  0  0  0  0
   20.6380   29.9547   36.9490 C   0  0  1  0  0  0  0  0  0  0  0  0
   22.0238   29.7232   37.1796 O   0  0  0  0  0  0  0  0  0  0  0  0
   15.9307   21.2301   33.1379 C   0  0  2  0  0  0  0  0  0  0  0  0
   17.2018   21.6707   33.7546 O   0  0  0  0  0  0  0  0  0  0  0  0
   17.8713   25.9507   33.9565 C   0  0  2  0  0  0  0  0  0  0  0  0
   19.2199   25.4879   33.9893 O   0  0  0  0  0  0  0  0  0  0  0  0
   20.3826   30.1879   35.4252 C   0  0  0  0  0  0  0  0  0  0  0  0
   20.7457   28.9916   34.6282 O   0  0  0  0  0  0  0  0  0  0  0  0
   15.2651   20.2031   34.0985 C   0  0  2  0  0  0  0  0  0  0  0  0
   14.0665   19.7022   33.4964 O   0  0  0  0  0  0  0  0  0  0  0  0
   17.6677   26.9087   35.1561 C   0  0  1  0  0  0  0  0  0  0  0  0
   18.5607   28.0425   34.9777 O   0  0  0  0  0  0  0  0  0  0  0  0
   14.8926   20.8222   35.4276 C   0  0  0  0  0  0  0  0  0  0  0  0
   20.2347   31.2047   37.7324 C   0  0  0  0  0  0  0  0  0  0  0  0
   18.7552   28.0770   39.4389 C   0  0  0  0  0  0  0  0  0  0  0  0
  1  2  1  6  0  0  0
  1  6  1  0  0  0  0
  1 23  1  0  0  0  0
  3  4  1  1  0  0  0
  3  8  1  0  0  0  0
  3 30  1  0  0  0  0
  5  9  1  0  0  0  0
  5 27  1  0  0  0  0
  5 31  1  1  0  0  0
  6  7  1  6  0  0  0
  6 11  1  0  0  0  0
  8 13  1  0  0  0  0
  9 10  1  1  0  0  0
  9 15  1  0  0  0  0
 11 12  1  6  0  0  0
 11 17  1  0  0  0  0
 13 14  1  1  0  0  0
 13 19  1  0  0  0  0
 15 16  1  1  0  0  0
 15 20  1  0  0  0  0
 16 34  1  0  0  0  0
 17 18  1  6  0  0  0
 17 22  1  0  0  0  0
 19  2  1  6  0  0  0
 19 24  1  0  0  0  0
 20 21  1  1  0  0  0
 20 26  1  0  0  0  0
 20 33  1  0  0  0  0
 22 23  1  1  0  0  0
 22 28  1  0  0  0  0
 24 25  1  1  0  0  0
 24 30  1  0  0  0  0
 26 27  1  0  0  0  0
 28 29  1  6  0  0  0
 28 32  1  0  0  0  0
 30 31  1  6  0  0  0
M  END
>  <CHROM.1>
-164.84818593,-142.50711494,-101.73335538,-54.40494811,179.58848891,-71.11954703
17.79113236,25.22572543,34.52286028,-2.10144446,0.65711747,0.87338507

>  <Name>
ligand

>  <RI>
0

>  <Rbt.Current_Directory>
/home/itssahil/PROJECTS/Mol_Feturizer/New_Systems/rnas/4p3s

>  <Rbt.Executable>
rbdock ($Id: //depot/dev/client3/rdock/2013.1/src/exe/rbdock.cxx#4 $)

>  <Rbt.Library>
libRbt.so (2013.1, Build901 2013/11/27)

>  <Rbt.Parameter_File>
/export/apps/rDock/src/rDock_2013.1_src/data/scripts/dock_solv.prm

>  <Rbt.Receptor>
prm/pocket_docking_8.prm

>  <SCORE>
-11.1071

>  <SCORE.INTER>
-9.18693

>  <SCORE.INTER.CONST>
1

>  <SCORE.INTER.POLAR>
0

>  <SCORE.INTER.ROT>
6

>  <SCORE.INTER.SOLV>
16.0419

>  <SCORE.INTER.VDW>
-19.0719

>  <SCORE.INTER.norm>
-0.270204

>  <SCORE.INTRA>
-1.92015

>  <SCORE.INTRA.DIHEDRAL>
-7.99884

>  <SCORE.INTRA.DIHEDRAL.0>
15.8194

>  <SCORE.INTRA.POLAR>
0

>  <SCORE.INTRA.POLAR.0>
0

>  <SCORE.INTRA.REPUL>
0

>  <SCORE.INTRA.REPUL.0>
0

>  <SCORE.INTRA.SOLV>
1.84558

>  <SCORE.INTRA.SOLV.lig_0>
-71.9159

>  <SCORE.INTRA.VDW>
1.15648

>  <SCORE.INTRA.VDW.0>
-3.53918

>  <SCORE.INTRA.norm>
-0.0564749

>  <SCORE.RESTR>
0

>  <SCORE.RESTR.CAVITY>
0

>  <SCORE.RESTR.norm>
0

>  <SCORE.SYSTEM>
0

>  <SCORE.SYSTEM.CONST>
0

>  <SCORE.SYSTEM.DIHEDRAL>
0

>  <SCORE.SYSTEM.SOLV>
0

>  <SCORE.SYSTEM.norm>
0

>  <SCORE.heavy>
34

>  <SCORE.norm>
-0.326679

>  <RMSD>
6.233

$$$$
ligand
 OpenBabel01301917533D
libRbt.so/2013.1/901 2013/11/27
 34 36  0  0  0  0  0  0  0  0999 V2000
   17.3797   22.3010   32.9226 C   0  0  2  0  0  0  0  0  0  0  0  0
   17.1727   23.6827   32.6122 O   0  0  0  0  0  0  0  0  0  0  0  0
   15.8174   27.1219   34.7887 C   0  0  2  0  0  0  0  0  0  0  0  0
   15.5921   28.0950   35.8662 N   0  0  0  0  0  0  0  0  0  0  0  0
   19.1501   28.6307   33.5517 C   0  0  2  0  0  0  0  0  0  0  0  0
   18.9009   22.1038   33.2802 C   0  0  2  0  0  0  0  0  0  0  0  0
   19.2852   22.9480   34.4229 N   0  0  0  0  0  0  0  0  0  0  0  0
   15.3852   25.7085   35.3222 C   0  0  0  0  0  0  0  0  0  0  0  0
   19.8693   28.7258   34.9549 C   0  0  2  0  0  0  0  0  0  0  0  0
   19.7311   27.5057   35.6626 O   0  0  0  0  0  0  0  0  0  0  0  0
   19.7916   22.4364   32.0453 C   0  0  1  0  0  0  0  0  0  0  0  0
   21.1831   22.2576   32.3678 O   0  0  0  0  0  0  0  0  0  0  0  0
   15.6080   24.6732   34.1643 C   0  0  2  0  0  0  0  0  0  0  0  0
   15.2224   23.3018   34.6038 N   0  0  0  0  0  0  0  0  0  0  0  0
   19.2100   29.9050   35.7656 C   0  0  1  0  0  0  0  0  0  0  0  0
   19.8155   30.0243   37.1073 N   0  0  0  0  0  0  0  0  0  0  0  0
   19.3570   21.5277   30.8716 C   0  0  2  0  0  0  0  0  0  0  0  0
   20.1719   21.8089   29.7293 O   0  0  0  0  0  0  0  0  0  0  0  0
   17.1004   24.6557   33.7150 C   0  0  2  0  0  0  0  0  0  0  0  0
   19.3910   31.2347   34.9671 C   0  0  1  0  0  0  0  0  0  0  0  0
   20.7848   31.4941   34.8355 O   0  0  0  0  0  0  0  0  0  0  0  0
   17.8181   21.7845   30.5686 C   0  0  2  0  0  0  0  0  0  0  0  0
   16.9943   21.4983   31.7643 O   0  0  0  0  0  0  0  0  0  0  0  0
   17.5117   26.0818   33.2583 C   0  0  2  0  0  0  0  0  0  0  0  0
   18.8871   26.0453   32.8830 O   0  0  0  0  0  0  0  0  0  0  0  0
   18.7440   31.0675   33.5547 C   0  0  0  0  0  0  0  0  0  0  0  0
   19.3193   29.9081   32.8317 O   0  0  0  0  0  0  0  0  0  0  0  0
   17.2829   20.9084   29.3997 C   0  0  2  0  0  0  0  0  0  0  0  0
   18.1912   20.9889   28.2957 O   0  0  0  0  0  0  0  0  0  0  0  0
   17.3567   27.1190   34.3978 C   0  0  1  0  0  0  0  0  0  0  0  0
   17.7374   28.4200   33.8712 O   0  0  0  0  0  0  0  0  0  0  0  0
   15.9247   21.3676   28.9170 C   0  0  0  0  0  0  0  0  0  0  0  0
   18.7572   32.4289   35.6821 C   0  0  0  0  0  0  0  0  0  0  0  0
   18.9249   29.3187   38.0611 C   0  0  0  0  0  0  0  0  0  0  0  0
  1  2  1  6  0  0  0
  1  6  1  0  0  0  0
  1 23  1  0  0  0  0
  3  4  1  1  0  0  0
  3  8  1  0  0  0  0
  3 30  1  0  0  0  0
  5  9  1  0  0  0  0
  5 27  1  0  0  0  0
  5 31  1  1  0  0  0
  6  7  1  1  0  0  0
  6 11  1  0  0  0  0
  8 13  1  0  0  0  0
  9 10  1  1  0  0  0
  9 15  1  0  0  0  0
 11 12  1  1  0  0  0
 11 17  1  0  0  0  0
 13 14  1  1  0  0  0
 13 19  1  0  0  0  0
 15 16  1  1  0  0  0
 15 20  1  0  0  0  0
 16 34  1  0  0  0  0
 17 18  1  6  0  0  0
 17 22  1  0  0  0  0
 19  2  1  6  0  0  0
 19 24  1  0  0  0  0
 20 21  1  6  0  0  0
 20 26  1  0  0  0  0
 20 33  1  0  0  0  0
 22 23  1  1  0  0  0
 22 28  1  0  0  0  0
 24 25  1  1  0  0  0
 24 30  1  0  0  0  0
 26 27  1  0  0  0  0
 28 29  1  6  0  0  0
 28 32  1  0  0  0  0
 30 31  1  6  0  0  0
M  END
>  <CHROM.1>
-76.85617402,-87.02902042,-97.69314755,-47.81156608,175.52922166,-71.97201504
18.24845333,25.79536666,33.41091282,1.68300870,-0.53013867,-2.58956148

>  <Name>
ligand

>  <RI>
0

>  <Rbt.Current_Directory>
/home/itssahil/PROJECTS/Mol_Feturizer/New_Systems/rnas/4p3s

>  <Rbt.Executable>
rbdock ($Id: //depot/dev/client3/rdock/2013.1/src/exe/rbdock.cxx#4 $)

>  <Rbt.Library>
libRbt.so (2013.1, Build901 2013/11/27)

>  <Rbt.Parameter_File>
/export/apps/rDock/src/rDock_2013.1_src/data/scripts/dock_solv.prm

>  <Rbt.Receptor>
prm/pocket_docking_7.prm

>  <SCORE>
-11.0226

>  <SCORE.INTER>
-9.55152

>  <SCORE.INTER.CONST>
1

>  <SCORE.INTER.POLAR>
0

>  <SCORE.INTER.ROT>
6

>  <SCORE.INTER.SOLV>
15.7884

>  <SCORE.INTER.VDW>
-19.2305

>  <SCORE.INTER.norm>
-0.280927

>  <SCORE.INTRA>
-1.47109

>  <SCORE.INTRA.DIHEDRAL>
-9.19198

>  <SCORE.INTRA.DIHEDRAL.0>
15.8194

>  <SCORE.INTRA.POLAR>
0

>  <SCORE.INTRA.POLAR.0>
0

>  <SCORE.INTRA.REPUL>
0

>  <SCORE.INTRA.REPUL.0>
0

>  <SCORE.INTRA.SOLV>
2.83088

>  <SCORE.INTRA.SOLV.lig_0>
-71.9159

>  <SCORE.INTRA.VDW>
1.70946

>  <SCORE.INTRA.VDW.0>
-3.53918

>  <SCORE.INTRA.norm>
-0.0432674

>  <SCORE.RESTR>
0

>  <SCORE.RESTR.CAVITY>
0

>  <SCORE.RESTR.norm>
0

>  <SCORE.SYSTEM>
0

>  <SCORE.SYSTEM.CONST>
0

>  <SCORE.SYSTEM.DIHEDRAL>
0

>  <SCORE.SYSTEM.SOLV>
0

>  <SCORE.SYSTEM.norm>
0

>  <SCORE.heavy>
34

>  <SCORE.norm>
-0.324195

>  <RMSD>
6.251

$$$$
ligand
 OpenBabel01301917533D
libRbt.so/2013.1/901 2013/11/27
 34 36  0  0  0  0  0  0  0  0999 V2000
   19.1122   30.4992   34.4625 C   0  0  2  0  0  0  0  0  0  0  0  0
   20.3254   31.2579   34.4883 O   0  0  0  0  0  0  0  0  0  0  0  0
   23.8592   30.5625   36.8188 C   0  0  2  0  0  0  0  0  0  0  0  0
   24.8234   30.5533   37.9274 N   0  0  0  0  0  0  0  0  0  0  0  0
   21.9985   27.4181   38.0432 C   0  0  2  0  0  0  0  0  0  0  0  0
   18.6890   30.3067   32.9577 C   0  0  2  0  0  0  0  0  0  0  0  0
   19.7429   29.6121   32.2008 N   0  0  0  0  0  0  0  0  0  0  0  0
   23.4433   32.0553   36.5586 C   0  0  0  0  0  0  0  0  0  0  0  0
   22.0096   27.8107   39.5732 C   0  0  2  0  0  0  0  0  0  0  0  0
   21.5864   29.1530   39.7401 O   0  0  0  0  0  0  0  0  0  0  0  0
   18.3820   31.6878   32.3040 C   0  0  1  0  0  0  0  0  0  0  0  0
   17.9949   31.5165   30.9281 O   0  0  0  0  0  0  0  0  0  0  0  0
   22.4284   32.0659   35.3619 C   0  0  2  0  0  0  0  0  0  0  0  0
   21.9840   33.4569   35.0618 N   0  0  0  0  0  0  0  0  0  0  0  0
   23.4777   27.6296   40.1158 C   0  0  1  0  0  0  0  0  0  0  0  0
   23.5644   28.0167   41.5383 N   0  0  0  0  0  0  0  0  0  0  0  0
   17.2708   32.3807   33.1269 C   0  0  2  0  0  0  0  0  0  0  0  0
   16.9648   33.6474   32.5354 O   0  0  0  0  0  0  0  0  0  0  0  0
   21.1758   31.1979   35.6889 C   0  0  2  0  0  0  0  0  0  0  0  0
   23.9082   26.1401   39.9304 C   0  0  1  0  0  0  0  0  0  0  0  0
   23.0331   25.3200   40.6978 O   0  0  0  0  0  0  0  0  0  0  0  0
   17.7706   32.5421   34.6270 C   0  0  2  0  0  0  0  0  0  0  0  0
   18.0915   31.2232   35.2166 O   0  0  0  0  0  0  0  0  0  0  0  0
   21.6300   29.7471   36.0062 C   0  0  2  0  0  0  0  0  0  0  0  0
   20.4706   28.9833   36.3320 O   0  0  0  0  0  0  0  0  0  0  0  0
   23.7980   25.7674   38.4170 C   0  0  0  0  0  0  0  0  0  0  0  0
   22.4310   26.0142   37.8989 O   0  0  0  0  0  0  0  0  0  0  0  0
   16.7145   33.2287   35.5400 C   0  0  2  0  0  0  0  0  0  0  0  0
   16.3918   34.5160   35.0026 O   0  0  0  0  0  0  0  0  0  0  0  0
   22.5900   29.6963   37.2203 C   0  0  1  0  0  0  0  0  0  0  0  0
   22.9793   28.3099   37.4230 O   0  0  0  0  0  0  0  0  0  0  0  0
   17.2230   33.4295   36.9506 C   0  0  0  0  0  0  0  0  0  0  0  0
   25.3357   25.8863   40.4170 C   0  0  0  0  0  0  0  0  0  0  0  0
   24.2889   29.3096   41.6036 C   0  0  0  0  0  0  0  0  0  0  0  0
  1  2  1  6  0  0  0
  1  6  1  0  0  0  0
  1 23  1  0  0  0  0
  3  4  1  1  0  0  0
  3  8  1  0  0  0  0
  3 30  1  0  0  0  0
  5  9  1  0  0  0  0
  5 27  1  0  0  0  0
  5 31  1  6  0  0  0
  6  7  1  6  0  0  0
  6 11  1  0  0  0  0
  8 13  1  0  0  0  0
  9 10  1  6  0  0  0
  9 15  1  0  0  0  0
 11 12  1  6  0  0  0
 11 17  1  0  0  0  0
 13 14  1  1  0  0  0
 13 19  1  0  0  0  0
 15 16  1  1  0  0  0
 15 20  1  0  0  0  0
 16 34  1  0  0  0  0
 17 18  1  6  0  0  0
 17 22  1  0  0  0  0
 19  2  1  6  0  0  0
 19 24  1  0  0  0  0
 20 21  1  1  0  0  0
 20 26  1  0  0  0  0
 20 33  1  0  0  0  0
 22 23  1  1  0  0  0
 22 28  1  0  0  0  0
 24 25  1  1  0  0  0
 24 30  1  0  0  0  0
 26 27  1  0  0  0  0
 28 29  1  6  0  0  0
 28 32  1  0  0  0  0
 30 31  1  6  0  0  0
M  END
>  <CHROM.1>
-159.44146727,177.26162946,-107.17643562,-58.06749495,168.59263330,-75.34690910
21.01349859,30.02612753,36.55491554,3.10555011,-0.95309879,0.65873829

>  <Name>
ligand

>  <RI>
0

>  <Rbt.Current_Directory>
/home/itssahil/PROJECTS/Mol_Feturizer/New_Systems/rnas/4p3s

>  <Rbt.Executable>
rbdock ($Id: //depot/dev/client3/rdock/2013.1/src/exe/rbdock.cxx#4 $)

>  <Rbt.Library>
libRbt.so (2013.1, Build901 2013/11/27)

>  <Rbt.Parameter_File>
/export/apps/rDock/src/rDock_2013.1_src/data/scripts/dock_solv.prm

>  <Rbt.Receptor>
prm/pocket_docking_6.prm

>  <SCORE>
-6.12445

>  <SCORE.INTER>
-1.67516

>  <SCORE.INTER.CONST>
1

>  <SCORE.INTER.POLAR>
0

>  <SCORE.INTER.ROT>
6

>  <SCORE.INTER.SOLV>
16.1679

>  <SCORE.INTER.VDW>
-14.1061

>  <SCORE.INTER.norm>
-0.0492694

>  <SCORE.INTRA>
-4.44929

>  <SCORE.INTRA.DIHEDRAL>
-10.9827

>  <SCORE.INTRA.DIHEDRAL.0>
15.8194

>  <SCORE.INTRA.POLAR>
0

>  <SCORE.INTRA.POLAR.0>
0

>  <SCORE.INTRA.REPUL>
0

>  <SCORE.INTRA.REPUL.0>
0

>  <SCORE.INTRA.SOLV>
-0.183111

>  <SCORE.INTRA.SOLV.lig_0>
-71.9159

>  <SCORE.INTRA.VDW>
1.1336

>  <SCORE.INTRA.VDW.0>
-3.53918

>  <SCORE.INTRA.norm>
-0.130862

>  <SCORE.RESTR>
0

>  <SCORE.RESTR.CAVITY>
0

>  <SCORE.RESTR.norm>
0

>  <SCORE.SYSTEM>
0

>  <SCORE.SYSTEM.CONST>
0

>  <SCORE.SYSTEM.DIHEDRAL>
0

>  <SCORE.SYSTEM.SOLV>
0

>  <SCORE.SYSTEM.norm>
0

>  <SCORE.heavy>
34

>  <SCORE.norm>
-0.180131

>  <RMSD>
6.405

$$$$
ligand
 OpenBabel01301917533D
libRbt.so/2013.1/901 2013/11/27
 34 36  0  0  0  0  0  0  0  0999 V2000
   22.9101   28.2345   39.4407 C   0  0  2  0  0  0  0  0  0  0  0  0
   22.1677   29.3975   39.0610 O   0  0  0  0  0  0  0  0  0  0  0  0
   22.9901   32.7910   36.5689 C   0  0  2  0  0  0  0  0  0  0  0  0
   23.4604   33.6270   35.4561 N   0  0  0  0  0  0  0  0  0  0  0  0
   20.8291   33.2886   34.3139 C   0  0  2  0  0  0  0  0  0  0  0  0
   22.4768   27.0496   38.4978 C   0  0  2  0  0  0  0  0  0  0  0  0
   22.7320   27.3813   37.0869 N   0  0  0  0  0  0  0  0  0  0  0  0
   24.2174   31.9652   37.0991 C   0  0  0  0  0  0  0  0  0  0  0  0
   19.5427   34.2015   34.2296 C   0  0  2  0  0  0  0  0  0  0  0  0
   19.5441   35.1523   35.2805 O   0  0  0  0  0  0  0  0  0  0  0  0
   20.9677   26.7204   38.7060 C   0  0  1  0  0  0  0  0  0  0  0  0
   20.5672   25.6378   37.8458 O   0  0  0  0  0  0  0  0  0  0  0  0
   23.7183   31.0872   38.3001 C   0  0  2  0  0  0  0  0  0  0  0  0
   24.8348   30.2680   38.8520 N   0  0  0  0  0  0  0  0  0  0  0  0
   18.2741   33.2730   34.3350 C   0  0  1  0  0  0  0  0  0  0  0  0
   17.0327   34.0721   34.2990 N   0  0  0  0  0  0  0  0  0  0  0  0
   20.7447   26.3761   40.1972 C   0  0  2  0  0  0  0  0  0  0  0  0
   19.3654   26.0583   40.4079 O   0  0  0  0  0  0  0  0  0  0  0  0
   22.5700   30.1338   37.8509 C   0  0  2  0  0  0  0  0  0  0  0  0
   18.2951   32.2477   33.1575 C   0  0  1  0  0  0  0  0  0  0  0  0
   18.2326   32.9692   31.9316 O   0  0  0  0  0  0  0  0  0  0  0  0
   21.2002   27.6155   41.0818 C   0  0  2  0  0  0  0  0  0  0  0  0
   22.6253   27.9343   40.8419 O   0  0  0  0  0  0  0  0  0  0  0  0
   21.4033   30.9790   37.2713 C   0  0  2  0  0  0  0  0  0  0  0  0
   20.3813   30.0828   36.8398 O   0  0  0  0  0  0  0  0  0  0  0  0
   19.6231   31.4271   33.2261 C   0  0  0  0  0  0  0  0  0  0  0  0
   20.8087   32.3169   33.2029 O   0  0  0  0  0  0  0  0  0  0  0  0
   21.0179   27.3632   42.6061 C   0  0  2  0  0  0  0  0  0  0  0  0
   19.6427   27.0680   42.8742 O   0  0  0  0  0  0  0  0  0  0  0  0
   21.8505   31.8156   36.0472 C   0  0  1  0  0  0  0  0  0  0  0  0
   20.7054   32.5884   35.5931 O   0  0  0  0  0  0  0  0  0  0  0  0
   21.4033   28.5688   43.4349 C   0  0  0  0  0  0  0  0  0  0  0  0
   17.1011   31.2931   33.2011 C   0  0  0  0  0  0  0  0  0  0  0  0
   16.4319   34.0209   35.6544 C   0  0  0  0  0  0  0  0  0  0  0  0
  1  2  1  6  0  0  0
  1  6  1  0  0  0  0
  1 23  1  0  0  0  0
  3  4  1  6  0  0  0
  3  8  1  0  0  0  0
  3 30  1  0  0  0  0
  5  9  1  0  0  0  0
  5 27  1  0  0  0  0
  5 31  1  1  0  0  0
  6  7  1  6  0  0  0
  6 11  1  0  0  0  0
  8 13  1  0  0  0  0
  9 10  1  1  0  0  0
  9 15  1  0  0  0  0
 11 12  1  6  0  0  0
 11 17  1  0  0  0  0
 13 14  1  6  0  0  0
 13 19  1  0  0  0  0
 15 16  1  6  0  0  0
 15 20  1  0  0  0  0
 16 34  1  0  0  0  0
 17 18  1  6  0  0  0
 17 22  1  0  0  0  0
 19  2  1  1  0  0  0
 19 24  1  0  0  0  0
 20 21  1  6  0  0  0
 20 26  1  0  0  0  0
 20 33  1  0  0  0  0
 22 23  1  1  0  0  0
 22 28  1  0  0  0  0
 24 25  1  6  0  0  0
 24 30  1  0  0  0  0
 26 27  1  0  0  0  0
 28 29  1  6  0  0  0
 28 32  1  0  0  0  0
 30 31  1  1  0  0  0
M  END
>  <CHROM.1>
-76.79909243,-83.73590086,-109.71856676,-58.22721373,74.39077457,-171.02796870
20.83073308,30.42869476,37.20783666,-1.29818902,-0.29880229,-0.77136557

>  <Name>
ligand

>  <RI>
0

>  <Rbt.Current_Directory>
/home/itssahil/PROJECTS/Mol_Feturizer/New_Systems/rnas/4p3s

>  <Rbt.Executable>
rbdock ($Id: //depot/dev/client3/rdock/2013.1/src/exe/rbdock.cxx#4 $)

>  <Rbt.Library>
libRbt.so (2013.1, Build901 2013/11/27)

>  <Rbt.Parameter_File>
/export/apps/rDock/src/rDock_2013.1_src/data/scripts/dock_solv.prm

>  <Rbt.Receptor>
prm/pocket_docking_7.prm

>  <SCORE>
-2.02655

>  <SCORE.INTER>
0.796345

>  <SCORE.INTER.CONST>
1

>  <SCORE.INTER.POLAR>
0

>  <SCORE.INTER.ROT>
6

>  <SCORE.INTER.SOLV>
12.9408

>  <SCORE.INTER.VDW>
-11.3827

>  <SCORE.INTER.norm>
0.0234219

>  <SCORE.INTRA>
-2.82289

>  <SCORE.INTRA.DIHEDRAL>
-9.48777

>  <SCORE.INTRA.DIHEDRAL.0>
15.8194

>  <SCORE.INTRA.POLAR>
0

>  <SCORE.INTRA.POLAR.0>
0

>  <SCORE.INTRA.REPUL>
0

>  <SCORE.INTRA.REPUL.0>
0

>  <SCORE.INTRA.SOLV>
2.73988

>  <SCORE.INTRA.SOLV.lig_0>
-71.9159

>  <SCORE.INTRA.VDW>
0.551056

>  <SCORE.INTRA.VDW.0>
-3.53918

>  <SCORE.INTRA.norm>
-0.0830262

>  <SCORE.RESTR>
0

>  <SCORE.RESTR.CAVITY>
0

>  <SCORE.RESTR.norm>
0

>  <SCORE.SYSTEM>
0

>  <SCORE.SYSTEM.CONST>
0

>  <SCORE.SYSTEM.DIHEDRAL>
0

>  <SCORE.SYSTEM.SOLV>
0

>  <SCORE.SYSTEM.norm>
0

>  <SCORE.heavy>
34

>  <SCORE.norm>
-0.0596043

>  <RMSD>
6.482

$$$$
ligand
 OpenBabel01301917533D
libRbt.so/2013.1/901 2013/11/27
 34 36  0  0  0  0  0  0  0  0999 V2000
   19.6994   23.9408   32.8104 C   0  0  2  0  0  0  0  0  0  0  0  0
   18.3103   24.2760   32.7309 O   0  0  0  0  0  0  0  0  0  0  0  0
   15.5164   26.8247   34.7559 C   0  0  2  0  0  0  0  0  0  0  0  0
   14.7570   27.5044   35.8141 N   0  0  0  0  0  0  0  0  0  0  0  0
   16.6751   29.6182   35.6094 C   0  0  2  0  0  0  0  0  0  0  0  0
   20.0984   23.1957   31.4814 C   0  0  2  0  0  0  0  0  0  0  0  0
   19.8435   24.0449   30.3067 N   0  0  0  0  0  0  0  0  0  0  0  0
   15.3949   25.2769   34.9984 C   0  0  0  0  0  0  0  0  0  0  0  0
   16.8873   31.0620   35.0044 C   0  0  2  0  0  0  0  0  0  0  0  0
   16.0871   31.2333   33.8473 O   0  0  0  0  0  0  0  0  0  0  0  0
   19.3087   21.8579   31.3565 C   0  0  1  0  0  0  0  0  0  0  0  0
   19.6703   21.1734   30.1428 O   0  0  0  0  0  0  0  0  0  0  0  0
   16.1901   24.5515   33.8567 C   0  0  2  0  0  0  0  0  0  0  0  0
   16.1229   23.0720   34.0273 N   0  0  0  0  0  0  0  0  0  0  0  0
   18.4122   31.2234   34.6427 C   0  0  1  0  0  0  0  0  0  0  0  0
   18.6721   32.5445   34.0361 N   0  0  0  0  0  0  0  0  0  0  0  0
   19.6062   20.9973   32.6067 C   0  0  2  0  0  0  0  0  0  0  0  0
   18.8992   19.7572   32.5060 O   0  0  0  0  0  0  0  0  0  0  0  0
   17.6859   24.9898   33.8573 C   0  0  2  0  0  0  0  0  0  0  0  0
   19.2642   31.0429   35.9387 C   0  0  1  0  0  0  0  0  0  0  0  0
   18.9027   32.0659   36.8608 O   0  0  0  0  0  0  0  0  0  0  0  0
   19.1761   21.8114   33.9021 C   0  0  2  0  0  0  0  0  0  0  0  0
   19.9101   23.0939   33.9822 O   0  0  0  0  0  0  0  0  0  0  0  0
   17.7653   26.5308   33.6832 C   0  0  2  0  0  0  0  0  0  0  0  0
   19.1400   26.9085   33.7187 O   0  0  0  0  0  0  0  0  0  0  0  0
   18.9582   29.6390   36.5528 C   0  0  0  0  0  0  0  0  0  0  0  0
   17.5093   29.4707   36.8182 O   0  0  0  0  0  0  0  0  0  0  0  0
   19.4418   21.0267   35.2189 C   0  0  2  0  0  0  0  0  0  0  0  0
   19.4232   21.9380   36.3231 O   0  0  0  0  0  0  0  0  0  0  0  0
   17.0367   27.2784   34.8271 C   0  0  1  0  0  0  0  0  0  0  0  0
   17.1416   28.7050   34.5652 O   0  0  0  0  0  0  0  0  0  0  0  0
   20.7876   20.3358   35.2106 C   0  0  0  0  0  0  0  0  0  0  0  0
   20.7640   31.1660   35.6661 C   0  0  0  0  0  0  0  0  0  0  0  0
   18.7720   32.3481   32.5691 C   0  0  0  0  0  0  0  0  0  0  0  0
  1  2  1  6  0  0  0
  1  6  1  0  0  0  0
  1 23  1  0  0  0  0
  3  4  1  1  0  0  0
  3  8  1  0  0  0  0
  3 30  1  0  0  0  0
  5  9  1  0  0  0  0
  5 27  1  0  0  0  0
  5 31  1  6  0  0  0
  6  7  1  6  0  0  0
  6 11  1  0  0  0  0
  8 13  1  0  0  0  0
  9 10  1  6  0  0  0
  9 15  1  0  0  0  0
 11 12  1  6  0  0  0
 11 17  1  0  0  0  0
 13 14  1  1  0  0  0
 13 19  1  0  0  0  0
 15 16  1  1  0  0  0
 15 20  1  0  0  0  0
 16 34  1  0  0  0  0
 17 18  1  6  0  0  0
 17 22  1  0  0  0  0
 19  2  1  6  0  0  0
 19 24  1  0  0  0  0
 20 21  1  1  0  0  0
 20 26  1  0  0  0  0
 20 33  1  0  0  0  0
 22 23  1  1  0  0  0
 22 28  1  0  0  0  0
 24 25  1  1  0  0  0
 24 30  1  0  0  0  0
 26 27  1  0  0  0  0
 28 29  1  1  0  0  0
 28 32  1  0  0  0  0
 30 31  1  6  0  0  0
M  END
>  <CHROM.1>
-179.79231337,-150.67014342,-101.12068193,162.54768997,72.41571417,-178.50240535
18.31047155,26.19309266,34.12874650,-1.37634106,0.79582134,0.08738724

>  <Name>
ligand

>  <RI>
0

>  <Rbt.Current_Directory>
/home/itssahil/PROJECTS/Mol_Feturizer/New_Systems/rnas/4p3s

>  <Rbt.Executable>
rbdock ($Id: //depot/dev/client3/rdock/2013.1/src/exe/rbdock.cxx#4 $)

>  <Rbt.Library>
libRbt.so (2013.1, Build901 2013/11/27)

>  <Rbt.Parameter_File>
/export/apps/rDock/src/rDock_2013.1_src/data/scripts/dock_solv.prm

>  <Rbt.Receptor>
prm/pocket_docking_6.prm

>  <SCORE>
-13.6421

>  <SCORE.INTER>
-10.266

>  <SCORE.INTER.CONST>
1

>  <SCORE.INTER.POLAR>
0

>  <SCORE.INTER.ROT>
6

>  <SCORE.INTER.SOLV>
22.2429

>  <SCORE.INTER.VDW>
-21.8583

>  <SCORE.INTER.norm>
-0.30194

>  <SCORE.INTRA>
-3.3761

>  <SCORE.INTRA.DIHEDRAL>
-9.55192

>  <SCORE.INTRA.DIHEDRAL.0>
15.8194

>  <SCORE.INTRA.POLAR>
0

>  <SCORE.INTRA.POLAR.0>
0

>  <SCORE.INTRA.REPUL>
0

>  <SCORE.INTRA.REPUL.0>
0

>  <SCORE.INTRA.SOLV>
0.699728

>  <SCORE.INTRA.SOLV.lig_0>
-71.9159

>  <SCORE.INTRA.VDW>
1.05

>  <SCORE.INTRA.VDW.0>
-3.53918

>  <SCORE.INTRA.norm>
-0.0992969

>  <SCORE.RESTR>
0

>  <SCORE.RESTR.CAVITY>
0

>  <SCORE.RESTR.norm>
0

>  <SCORE.SYSTEM>
0

>  <SCORE.SYSTEM.CONST>
0

>  <SCORE.SYSTEM.DIHEDRAL>
0

>  <SCORE.SYSTEM.SOLV>
0

>  <SCORE.SYSTEM.norm>
0

>  <SCORE.heavy>
34

>  <SCORE.norm>
-0.401237

>  <RMSD>
6.483

$$$$
ligand
 OpenBabel01301917533D
libRbt.so/2013.1/901 2013/11/27
 34 36  0  0  0  0  0  0  0  0999 V2000
   16.2128   24.4878   32.9557 C   0  0  2  0  0  0  0  0  0  0  0  0
   16.4316   25.2316   34.1586 O   0  0  0  0  0  0  0  0  0  0  0  0
   18.1339   29.0822   34.9816 C   0  0  2  0  0  0  0  0  0  0  0  0
   18.4614   30.5122   34.9007 N   0  0  0  0  0  0  0  0  0  0  0  0
   14.9491   29.7098   37.0467 C   0  0  2  0  0  0  0  0  0  0  0  0
   15.1532   23.3638   33.2630 C   0  0  2  0  0  0  0  0  0  0  0  0
   13.8898   23.9494   33.7392 N   0  0  0  0  0  0  0  0  0  0  0  0
   18.4287   28.4434   33.5766 C   0  0  0  0  0  0  0  0  0  0  0  0
   14.9829   31.0225   37.9248 C   0  0  2  0  0  0  0  0  0  0  0  0
   15.4445   32.1186   37.1540 O   0  0  0  0  0  0  0  0  0  0  0  0
   15.7155   22.3693   34.3230 C   0  0  1  0  0  0  0  0  0  0  0  0
   14.7499   21.3400   34.6071 O   0  0  0  0  0  0  0  0  0  0  0  0
   18.0970   26.9126   33.6697 C   0  0  2  0  0  0  0  0  0  0  0  0
   18.3489   26.2397   32.3635 N   0  0  0  0  0  0  0  0  0  0  0  0
   15.9447   30.7709   39.1471 C   0  0  1  0  0  0  0  0  0  0  0  0
   16.0493   31.9778   39.9916 N   0  0  0  0  0  0  0  0  0  0  0  0
   17.0380   21.7768   33.7828 C   0  0  2  0  0  0  0  0  0  0  0  0
   17.5657   20.8503   34.7373 O   0  0  0  0  0  0  0  0  0  0  0  0
   16.6070   26.6910   34.0699 C   0  0  2  0  0  0  0  0  0  0  0  0
   15.4020   29.5682   39.9821 C   0  0  1  0  0  0  0  0  0  0  0  0
   14.1123   29.9109   40.4787 O   0  0  0  0  0  0  0  0  0  0  0  0
   18.0536   22.9664   33.5005 C   0  0  2  0  0  0  0  0  0  0  0  0
   17.4855   23.9181   32.5198 O   0  0  0  0  0  0  0  0  0  0  0  0
   16.3348   27.3917   35.4287 C   0  0  2  0  0  0  0  0  0  0  0  0
   14.9599   27.2008   35.7557 O   0  0  0  0  0  0  0  0  0  0  0  0
   15.3005   28.3146   39.0549 C   0  0  0  0  0  0  0  0  0  0  0  0
   14.4541   28.5882   37.8688 O   0  0  0  0  0  0  0  0  0  0  0  0
   19.4199   22.4694   32.9467 C   0  0  2  0  0  0  0  0  0  0  0  0
   19.9898   21.5330   33.8679 O   0  0  0  0  0  0  0  0  0  0  0  0
   16.5991   28.9158   35.3543 C   0  0  1  0  0  0  0  0  0  0  0  0
   16.3444   29.4772   36.6713 O   0  0  0  0  0  0  0  0  0  0  0  0
   20.4080   23.6004   32.7646 C   0  0  0  0  0  0  0  0  0  0  0  0
   16.2958   29.2468   41.1808 C   0  0  0  0  0  0  0  0  0  0  0  0
   17.3578   32.6128   39.6993 C   0  0  0  0  0  0  0  0  0  0  0  0
  1  2  1  1  0  0  0
  1  6  1  0  0  0  0
  1 23  1  0  0  0  0
  3  4  1  6  0  0  0
  3  8  1  0  0  0  0
  3 30  1  0  0  0  0
  5  9  1  0  0  0  0
  5 27  1  0  0  0  0
  5 31  1  1  0  0  0
  6  7  1  1  0  0  0
  6 11  1  0  0  0  0
  8 13  1  0  0  0  0
  9 10  1  6  0  0  0
  9 15  1  0  0  0  0
 11 12  1  6  0  0  0
 11 17  1  0  0  0  0
 13 14  1  6  0  0  0
 13 19  1  0  0  0  0
 15 16  1  1  0  0  0
 15 20  1  0  0  0  0
 16 34  1  0  0  0  0
 17 18  1  1  0  0  0
 17 22  1  0  0  0  0
 19  2  1  1  0  0  0
 19 24  1  0  0  0  0
 20 21  1  1  0  0  0
 20 26  1  0  0  0  0
 20 33  1  0  0  0  0
 22 23  1  6  0  0  0
 22 28  1  0  0  0  0
 24 25  1  6  0  0  0
 24 30  1  0  0  0  0
 26 27  1  0  0  0  0
 28 29  1  1  0  0  0
 28 32  1  0  0  0  0
 30 31  1  1  0  0  0
M  END
>  <CHROM.1>
-141.27812455,-81.38991480,-103.65761804,-56.85481128,165.49329124,-145.02780220
16.60322391,26.82155838,35.71331597,-1.31175435,0.79532777,0.40988211

>  <Name>
ligand

>  <RI>
0

>  <Rbt.Current_Directory>
/home/itssahil/PROJECTS/Mol_Feturizer/New_Systems/rnas/4p3s

>  <Rbt.Executable>
rbdock ($Id: //depot/dev/client3/rdock/2013.1/src/exe/rbdock.cxx#4 $)

>  <Rbt.Library>
libRbt.so (2013.1, Build901 2013/11/27)

>  <Rbt.Parameter_File>
/export/apps/rDock/src/rDock_2013.1_src/data/scripts/dock_solv.prm

>  <Rbt.Receptor>
prm/pocket_docking_7.prm

>  <SCORE>
-7.68025

>  <SCORE.INTER>
-8.80106

>  <SCORE.INTER.CONST>
1

>  <SCORE.INTER.POLAR>
0

>  <SCORE.INTER.ROT>
6

>  <SCORE.INTER.SOLV>
16.4263

>  <SCORE.INTER.VDW>
-18.9428

>  <SCORE.INTER.norm>
-0.258855

>  <SCORE.INTRA>
1.12081

>  <SCORE.INTRA.DIHEDRAL>
-1.98994

>  <SCORE.INTRA.DIHEDRAL.0>
15.8194

>  <SCORE.INTRA.POLAR>
0

>  <SCORE.INTRA.POLAR.0>
0

>  <SCORE.INTRA.REPUL>
0

>  <SCORE.INTRA.REPUL.0>
0

>  <SCORE.INTRA.SOLV>
2.02449

>  <SCORE.INTRA.SOLV.lig_0>
-71.9159

>  <SCORE.INTRA.VDW>
1.10353

>  <SCORE.INTRA.VDW.0>
-3.53918

>  <SCORE.INTRA.norm>
0.032965

>  <SCORE.RESTR>
0

>  <SCORE.RESTR.CAVITY>
0

>  <SCORE.RESTR.norm>
0

>  <SCORE.SYSTEM>
0

>  <SCORE.SYSTEM.CONST>
0

>  <SCORE.SYSTEM.DIHEDRAL>
0

>  <SCORE.SYSTEM.SOLV>
0

>  <SCORE.SYSTEM.norm>
0

>  <SCORE.heavy>
34

>  <SCORE.norm>
-0.22589

>  <RMSD>
6.504

$$$$
ligand
 OpenBabel01301917533D
libRbt.so/2013.1/901 2013/11/27
 34 36  0  0  0  0  0  0  0  0999 V2000
   20.4467   31.9148   33.5131 C   0  0  2  0  0  0  0  0  0  0  0  0
   21.1338   30.6751   33.7106 O   0  0  0  0  0  0  0  0  0  0  0  0
   19.1793   29.6091   37.3775 C   0  0  2  0  0  0  0  0  0  0  0  0
   18.7137   28.8446   38.5425 N   0  0  0  0  0  0  0  0  0  0  0  0
   20.9797   29.9229   39.9471 C   0  0  2  0  0  0  0  0  0  0  0  0
   20.9398   32.5346   32.1517 C   0  0  2  0  0  0  0  0  0  0  0  0
   20.6741   31.6183   31.0311 N   0  0  0  0  0  0  0  0  0  0  0  0
   18.7963   28.7970   36.0879 C   0  0  0  0  0  0  0  0  0  0  0  0
   21.4166   31.0249   40.9911 C   0  0  2  0  0  0  0  0  0  0  0  0
   20.5260   32.1264   40.9459 O   0  0  0  0  0  0  0  0  0  0  0  0
   22.4622   32.8594   32.2283 C   0  0  1  0  0  0  0  0  0  0  0  0
   22.9173   33.4260   30.9857 O   0  0  0  0  0  0  0  0  0  0  0  0
   19.2767   29.6235   34.8436 C   0  0  2  0  0  0  0  0  0  0  0  0
   18.9499   28.9064   33.5782 N   0  0  0  0  0  0  0  0  0  0  0  0
   22.8785   31.4895   40.6316 C   0  0  1  0  0  0  0  0  0  0  0  0
   23.3350   32.5502   41.5523 N   0  0  0  0  0  0  0  0  0  0  0  0
   22.6960   33.8241   33.4144 C   0  0  2  0  0  0  0  0  0  0  0  0
   24.0883   34.1452   33.4951 O   0  0  0  0  0  0  0  0  0  0  0  0
   20.8151   29.8675   34.8999 C   0  0  2  0  0  0  0  0  0  0  0  0
   23.8358   30.2579   40.7037 C   0  0  1  0  0  0  0  0  0  0  0  0
   23.8295   29.7608   42.0379 O   0  0  0  0  0  0  0  0  0  0  0  0
   22.1783   33.1306   34.7474 C   0  0  2  0  0  0  0  0  0  0  0  0
   20.7405   32.7973   34.6398 O   0  0  0  0  0  0  0  0  0  0  0  0
   21.1651   30.6116   36.2172 C   0  0  2  0  0  0  0  0  0  0  0  0
   22.5789   30.7940   36.2585 O   0  0  0  0  0  0  0  0  0  0  0  0
   23.3179   29.1578   39.7223 C   0  0  0  0  0  0  0  0  0  0  0  0
   21.9152   28.7836   40.0233 O   0  0  0  0  0  0  0  0  0  0  0  0
   22.3671   34.0295   36.0031 C   0  0  2  0  0  0  0  0  0  0  0  0
   21.8206   35.3268   35.7410 O   0  0  0  0  0  0  0  0  0  0  0  0
   20.7540   29.7949   37.4672 C   0  0  1  0  0  0  0  0  0  0  0  0
   21.0950   30.5786   38.6437 O   0  0  0  0  0  0  0  0  0  0  0  0
   23.8252   34.2054   36.3659 C   0  0  0  0  0  0  0  0  0  0  0  0
   25.2770   30.6245   40.3466 C   0  0  0  0  0  0  0  0  0  0  0  0
   23.4038   33.8127   40.7764 C   0  0  0  0  0  0  0  0  0  0  0  0
  1  2  1  1  0  0  0
  1  6  1  0  0  0  0
  1 23  1  0  0  0  0
  3  4  1  1  0  0  0
  3  8  1  0  0  0  0
  3 30  1  0  0  0  0
  5  9  1  0  0  0  0
  5 27  1  0  0  0  0
  5 31  1  6  0  0  0
  6  7  1  6  0  0  0
  6 11  1  0  0  0  0
  8 13  1  0  0  0  0
  9 10  1  6  0  0  0
  9 15  1  0  0  0  0
 11 12  1  6  0  0  0
 11 17  1  0  0  0  0
 13 14  1  6  0  0  0
 13 19  1  0  0  0  0
 15 16  1  1  0  0  0
 15 20  1  0  0  0  0
 16 34  1  0  0  0  0
 17 18  1  1  0  0  0
 17 22  1  0  0  0  0
 19  2  1  6  0  0  0
 19 24  1  0  0  0  0
 20 21  1  1  0  0  0
 20 26  1  0  0  0  0
 20 33  1  0  0  0  0
 22 23  1  6  0  0  0
 22 28  1  0  0  0  0
 24 25  1  1  0  0  0
 24 30  1  0  0  0  0
 26 27  1  0  0  0  0
 28 29  1  6  0  0  0
 28 32  1  0  0  0  0
 30 31  1  1  0  0  0
M  END
>  <CHROM.1>
-177.93900548,55.81899870,-110.11584027,50.72899881,73.46630251,179.90199128
21.74998980,31.42580258,36.76906831,1.75873435,-0.83774615,-1.20552647

>  <Name>
ligand

>  <RI>
0

>  <Rbt.Current_Directory>
/home/itssahil/PROJECTS/Mol_Feturizer/New_Systems/rnas/4p3s

>  <Rbt.Executable>
rbdock ($Id: //depot/dev/client3/rdock/2013.1/src/exe/rbdock.cxx#4 $)

>  <Rbt.Library>
libRbt.so (2013.1, Build901 2013/11/27)

>  <Rbt.Parameter_File>
/export/apps/rDock/src/rDock_2013.1_src/data/scripts/dock_solv.prm

>  <Rbt.Receptor>
prm/pocket_docking_7.prm

>  <SCORE>
-8.61706

>  <SCORE.INTER>
-3.56159

>  <SCORE.INTER.CONST>
1

>  <SCORE.INTER.POLAR>
0

>  <SCORE.INTER.ROT>
6

>  <SCORE.INTER.SOLV>
9.24408

>  <SCORE.INTER.VDW>
-13.0558

>  <SCORE.INTER.norm>
-0.104753

>  <SCORE.INTRA>
-5.05547

>  <SCORE.INTRA.DIHEDRAL>
-13.336

>  <SCORE.INTRA.DIHEDRAL.0>
15.8194

>  <SCORE.INTRA.POLAR>
0

>  <SCORE.INTRA.POLAR.0>
0

>  <SCORE.INTRA.REPUL>
0

>  <SCORE.INTRA.REPUL.0>
0

>  <SCORE.INTRA.SOLV>
0.766184

>  <SCORE.INTRA.SOLV.lig_0>
-71.9159

>  <SCORE.INTRA.VDW>
1.22943

>  <SCORE.INTRA.VDW.0>
-3.53918

>  <SCORE.INTRA.norm>
-0.14869

>  <SCORE.RESTR>
0

>  <SCORE.RESTR.CAVITY>
0

>  <SCORE.RESTR.norm>
0

>  <SCORE.SYSTEM>
0

>  <SCORE.SYSTEM.CONST>
0

>  <SCORE.SYSTEM.DIHEDRAL>
0

>  <SCORE.SYSTEM.SOLV>
0

>  <SCORE.SYSTEM.norm>
0

>  <SCORE.heavy>
34

>  <SCORE.norm>
-0.253443

>  <RMSD>
6.657

$$$$
ligand
 OpenBabel01301917533D
libRbt.so/2013.1/901 2013/11/27
 34 36  0  0  0  0  0  0  0  0999 V2000
   19.1936   31.3648   34.3656 C   0  0  2  0  0  0  0  0  0  0  0  0
   20.1951   32.3141   34.7450 O   0  0  0  0  0  0  0  0  0  0  0  0
   22.7348   32.5077   38.1967 C   0  0  2  0  0  0  0  0  0  0  0  0
   23.2139   32.7159   39.5700 N   0  0  0  0  0  0  0  0  0  0  0  0
   22.6744   29.9333   40.0059 C   0  0  2  0  0  0  0  0  0  0  0  0
   19.0829   31.3739   32.7944 C   0  0  2  0  0  0  0  0  0  0  0  0
   20.3734   31.0310   32.1754 N   0  0  0  0  0  0  0  0  0  0  0  0
   22.0559   33.8419   37.7192 C   0  0  0  0  0  0  0  0  0  0  0  0
   23.4358   28.5520   40.0939 C   0  0  2  0  0  0  0  0  0  0  0  0
   24.6289   28.5980   39.3303 O   0  0  0  0  0  0  0  0  0  0  0  0
   18.6047   32.7712   32.2966 C   0  0  1  0  0  0  0  0  0  0  0  0
   18.5023   32.7839   30.8607 O   0  0  0  0  0  0  0  0  0  0  0  0
   21.5618   33.6248   36.2458 C   0  0  2  0  0  0  0  0  0  0  0  0
   20.8984   34.8549   35.7271 N   0  0  0  0  0  0  0  0  0  0  0  0
   22.4786   27.4278   39.5442 C   0  0  1  0  0  0  0  0  0  0  0  0
   23.1467   26.1110   39.5654 N   0  0  0  0  0  0  0  0  0  0  0  0
   17.2483   33.0901   32.9677 C   0  0  2  0  0  0  0  0  0  0  0  0
   16.7847   34.3657   32.5139 O   0  0  0  0  0  0  0  0  0  0  0  0
   20.5532   32.4391   36.1678 C   0  0  2  0  0  0  0  0  0  0  0  0
   21.1820   27.3939   40.4136 C   0  0  1  0  0  0  0  0  0  0  0  0
   21.5459   27.0699   41.7515 O   0  0  0  0  0  0  0  0  0  0  0  0
   17.4400   33.0657   34.5453 C   0  0  2  0  0  0  0  0  0  0  0  0
   17.9293   31.7426   34.9928 O   0  0  0  0  0  0  0  0  0  0  0  0
   21.2353   31.1534   36.7094 C   0  0  2  0  0  0  0  0  0  0  0  0
   20.2831   30.0931   36.6565 O   0  0  0  0  0  0  0  0  0  0  0  0
   20.5082   28.8031   40.3706 C   0  0  0  0  0  0  0  0  0  0  0  0
   21.4441   29.8623   40.8182 O   0  0  0  0  0  0  0  0  0  0  0  0
   16.1226   33.3722   35.3140 C   0  0  2  0  0  0  0  0  0  0  0  0
   16.3861   33.3691   36.7214 O   0  0  0  0  0  0  0  0  0  0  0  0
   21.6846   31.3163   38.1825 C   0  0  1  0  0  0  0  0  0  0  0  0
   22.3316   30.0796   38.5905 O   0  0  0  0  0  0  0  0  0  0  0  0
   15.0490   32.3420   35.0411 C   0  0  0  0  0  0  0  0  0  0  0  0
   20.1886   26.3370   39.9289 C   0  0  0  0  0  0  0  0  0  0  0  0
   23.5855   25.8128   38.1800 C   0  0  0  0  0  0  0  0  0  0  0  0
  1  2  1  6  0  0  0
  1  6  1  0  0  0  0
  1 23  1  0  0  0  0
  3  4  1  1  0  0  0
  3  8  1  0  0  0  0
  3 30  1  0  0  0  0
  5  9  1  0  0  0  0
  5 27  1  0  0  0  0
  5 31  1  6  0  0  0
  6  7  1  6  0  0  0
  6 11  1  0  0  0  0
  8 13  1  0  0  0  0
  9 10  1  6  0  0  0
  9 15  1  0  0  0  0
 11 12  1  6  0  0  0
 11 17  1  0  0  0  0
 13 14  1  1  0  0  0
 13 19  1  0  0  0  0
 15 16  1  1  0  0  0
 15 20  1  0  0  0  0
 16 34  1  0  0  0  0
 17 18  1  6  0  0  0
 17 22  1  0  0  0  0
 19  2  1  6  0  0  0
 19 24  1  0  0  0  0
 20 21  1  1  0  0  0
 20 26  1  0  0  0  0
 20 33  1  0  0  0  0
 22 23  1  1  0  0  0
 22 28  1  0  0  0  0
 24 25  1  1  0  0  0
 24 30  1  0  0  0  0
 26 27  1  0  0  0  0
 28 29  1  1  0  0  0
 28 32  1  0  0  0  0
 30 31  1  6  0  0  0
M  END
>  <CHROM.1>
-176.23302629,-175.21766130,-101.83464495,-178.36594523,72.86857906,-176.28995423
20.39838903,30.90961161,36.85789982,2.22877190,-0.62235727,-0.48896117

>  <Name>
ligand

>  <RI>
0

>  <Rbt.Current_Directory>
/home/itssahil/PROJECTS/Mol_Feturizer/New_Systems/rnas/4p3s

>  <Rbt.Executable>
rbdock ($Id: //depot/dev/client3/rdock/2013.1/src/exe/rbdock.cxx#4 $)

>  <Rbt.Library>
libRbt.so (2013.1, Build901 2013/11/27)

>  <Rbt.Parameter_File>
/export/apps/rDock/src/rDock_2013.1_src/data/scripts/dock_solv.prm

>  <Rbt.Receptor>
prm/pocket_docking_8.prm

>  <SCORE>
-6.54937

>  <SCORE.INTER>
-0.0689639

>  <SCORE.INTER.CONST>
1

>  <SCORE.INTER.POLAR>
0

>  <SCORE.INTER.ROT>
6

>  <SCORE.INTER.SOLV>
6.59476

>  <SCORE.INTER.VDW>
-9.84423

>  <SCORE.INTER.norm>
-0.00202835

>  <SCORE.INTRA>
-6.48041

>  <SCORE.INTRA.DIHEDRAL>
-13.719

>  <SCORE.INTRA.DIHEDRAL.0>
15.8194

>  <SCORE.INTRA.POLAR>
0

>  <SCORE.INTRA.POLAR.0>
0

>  <SCORE.INTRA.REPUL>
0

>  <SCORE.INTRA.REPUL.0>
0

>  <SCORE.INTRA.SOLV>
-1.00859

>  <SCORE.INTRA.SOLV.lig_0>
-71.9159

>  <SCORE.INTRA.VDW>
0.883403

>  <SCORE.INTRA.VDW.0>
-3.53918

>  <SCORE.INTRA.norm>
-0.1906

>  <SCORE.RESTR>
0

>  <SCORE.RESTR.CAVITY>
0

>  <SCORE.RESTR.norm>
0

>  <SCORE.SYSTEM>
0

>  <SCORE.SYSTEM.CONST>
0

>  <SCORE.SYSTEM.DIHEDRAL>
0

>  <SCORE.SYSTEM.SOLV>
0

>  <SCORE.SYSTEM.norm>
0

>  <SCORE.heavy>
34

>  <SCORE.norm>
-0.192629

>  <RMSD>
6.691

$$$$
ligand
 OpenBabel01301917533D
libRbt.so/2013.1/901 2013/11/27
 34 36  0  0  0  0  0  0  0  0999 V2000
   17.3757   32.1333   36.3928 C   0  0  2  0  0  0  0  0  0  0  0  0
   18.0530   33.2008   35.7221 O   0  0  0  0  0  0  0  0  0  0  0  0
   21.9312   34.8696   36.4816 C   0  0  2  0  0  0  0  0  0  0  0  0
   23.0223   35.6624   37.0644 N   0  0  0  0  0  0  0  0  0  0  0  0
   23.6096   33.4035   38.6565 C   0  0  2  0  0  0  0  0  0  0  0  0
   16.3832   31.4652   35.3685 C   0  0  2  0  0  0  0  0  0  0  0  0
   17.1071   30.9535   34.1937 N   0  0  0  0  0  0  0  0  0  0  0  0
   20.7797   35.8614   36.0818 C   0  0  0  0  0  0  0  0  0  0  0  0
   24.4968   32.1334   38.9644 C   0  0  2  0  0  0  0  0  0  0  0  0
   24.9715   31.5604   37.7582 O   0  0  0  0  0  0  0  0  0  0  0  0
   15.2977   32.4912   34.9235 C   0  0  1  0  0  0  0  0  0  0  0  0
   14.3883   31.8846   33.9868 O   0  0  0  0  0  0  0  0  0  0  0  0
   19.6231   35.0159   35.4418 C   0  0  2  0  0  0  0  0  0  0  0  0
   18.4880   35.8958   35.0419 N   0  0  0  0  0  0  0  0  0  0  0  0
   23.6109   31.0947   39.7509 C   0  0  1  0  0  0  0  0  0  0  0  0
   24.3741   29.8636   40.0389 N   0  0  0  0  0  0  0  0  0  0  0  0
   14.5615   33.0002   36.1848 C   0  0  2  0  0  0  0  0  0  0  0  0
   13.5506   33.9359   35.7968 O   0  0  0  0  0  0  0  0  0  0  0  0
   19.0987   33.9442   36.4447 C   0  0  2  0  0  0  0  0  0  0  0  0
   23.1158   31.7507   41.0785 C   0  0  1  0  0  0  0  0  0  0  0  0
   24.2531   32.0742   41.8718 O   0  0  0  0  0  0  0  0  0  0  0  0
   15.6237   33.6611   37.1651 C   0  0  2  0  0  0  0  0  0  0  0  0
   16.6653   32.6812   37.5459 O   0  0  0  0  0  0  0  0  0  0  0  0
   20.2758   33.0246   36.8693 C   0  0  2  0  0  0  0  0  0  0  0  0
   19.7769   32.0749   37.8089 O   0  0  0  0  0  0  0  0  0  0  0  0
   22.3194   33.0500   40.7334 C   0  0  0  0  0  0  0  0  0  0  0  0
   23.1389   33.9870   39.9280 O   0  0  0  0  0  0  0  0  0  0  0  0
   14.9772   34.2026   38.4725 C   0  0  2  0  0  0  0  0  0  0  0  0
   14.0989   33.2084   39.0113 O   0  0  0  0  0  0  0  0  0  0  0  0
   21.4114   33.8224   37.5565 C   0  0  1  0  0  0  0  0  0  0  0  0
   22.4733   32.8872   37.8921 O   0  0  0  0  0  0  0  0  0  0  0  0
   14.1659   35.4566   38.2318 C   0  0  0  0  0  0  0  0  0  0  0  0
   22.2287   30.8082   41.8932 C   0  0  0  0  0  0  0  0  0  0  0  0
   23.7731   28.7701   39.2365 C   0  0  0  0  0  0  0  0  0  0  0  0
  1  2  1  6  0  0  0
  1  6  1  0  0  0  0
  1 23  1  0  0  0  0
  3  4  1  1  0  0  0
  3  8  1  0  0  0  0
  3 30  1  0  0  0  0
  5  9  1  0  0  0  0
  5 27  1  0  0  0  0
  5 31  1  6  0  0  0
  6  7  1  6  0  0  0
  6 11  1  0  0  0  0
  8 13  1  0  0  0  0
  9 10  1  6  0  0  0
  9 15  1  0  0  0  0
 11 12  1  6  0  0  0
 11 17  1  0  0  0  0
 13 14  1  1  0  0  0
 13 19  1  0  0  0  0
 15 16  1  1  0  0  0
 15 20  1  0  0  0  0
 16 34  1  0  0  0  0
 17 18  1  6  0  0  0
 17 22  1  0  0  0  0
 19  2  1  6  0  0  0
 19 24  1  0  0  0  0
 20 21  1  1  0  0  0
 20 26  1  0  0  0  0
 20 33  1  0  0  0  0
 22 23  1  1  0  0  0
 22 28  1  0  0  0  0
 24 25  1  1  0  0  0
 24 30  1  0  0  0  0
 26 27  1  0  0  0  0
 28 29  1  6  0  0  0
 28 32  1  0  0  0  0
 30 31  1  6  0  0  0
M  END
>  <CHROM.1>
-176.62069400,179.91177222,-112.21119794,47.05576309,69.63312805,174.93804068
19.65790938,32.91899727,37.65534318,2.75065452,-0.15507593,-0.83503997

>  <Name>
ligand

>  <RI>
0

>  <Rbt.Current_Directory>
/home/itssahil/PROJECTS/Mol_Feturizer/New_Systems/rnas/4p3s

>  <Rbt.Executable>
rbdock ($Id: //depot/dev/client3/rdock/2013.1/src/exe/rbdock.cxx#4 $)

>  <Rbt.Library>
libRbt.so (2013.1, Build901 2013/11/27)

>  <Rbt.Parameter_File>
/export/apps/rDock/src/rDock_2013.1_src/data/scripts/dock_solv.prm

>  <Rbt.Receptor>
prm/pocket_docking_8.prm

>  <SCORE>
-9.31801

>  <SCORE.INTER>
-3.39892

>  <SCORE.INTER.CONST>
1

>  <SCORE.INTER.POLAR>
0

>  <SCORE.INTER.ROT>
6

>  <SCORE.INTER.SOLV>
13.701

>  <SCORE.INTER.VDW>
-14.4329

>  <SCORE.INTER.norm>
-0.0999682

>  <SCORE.INTRA>
-5.9191

>  <SCORE.INTRA.DIHEDRAL>
-13.3567

>  <SCORE.INTRA.DIHEDRAL.0>
15.8194

>  <SCORE.INTRA.POLAR>
0

>  <SCORE.INTRA.POLAR.0>
0

>  <SCORE.INTRA.REPUL>
0

>  <SCORE.INTRA.REPUL.0>
0

>  <SCORE.INTRA.SOLV>
-0.496452

>  <SCORE.INTRA.SOLV.lig_0>
-71.9159

>  <SCORE.INTRA.VDW>
1.00747

>  <SCORE.INTRA.VDW.0>
-3.53918

>  <SCORE.INTRA.norm>
-0.174091

>  <SCORE.RESTR>
0

>  <SCORE.RESTR.CAVITY>
0

>  <SCORE.RESTR.norm>
0

>  <SCORE.SYSTEM>
0

>  <SCORE.SYSTEM.CONST>
0

>  <SCORE.SYSTEM.DIHEDRAL>
0

>  <SCORE.SYSTEM.SOLV>
0

>  <SCORE.SYSTEM.norm>
0

>  <SCORE.heavy>
34

>  <SCORE.norm>
-0.274059

>  <RMSD>
6.758

$$$$
ligand
 OpenBabel01301917533D
libRbt.so/2013.1/901 2013/11/27
 34 36  0  0  0  0  0  0  0  0999 V2000
   24.0942   29.3934   39.6627 C   0  0  2  0  0  0  0  0  0  0  0  0
   25.0218   29.8357   38.6666 O   0  0  0  0  0  0  0  0  0  0  0  0
   22.8580   33.3099   37.3820 C   0  0  2  0  0  0  0  0  0  0  0  0
   22.5417   34.6419   36.8489 N   0  0  0  0  0  0  0  0  0  0  0  0
   21.5948   33.3430   34.8628 C   0  0  2  0  0  0  0  0  0  0  0  0
   24.6837   28.0981   40.3376 C   0  0  2  0  0  0  0  0  0  0  0  0
   25.9950   28.3737   40.9462 N   0  0  0  0  0  0  0  0  0  0  0  0
   23.9055   33.4936   38.5387 C   0  0  0  0  0  0  0  0  0  0  0  0
   20.5359   32.7550   33.8488 C   0  0  2  0  0  0  0  0  0  0  0  0
   19.7781   31.7298   34.4679 O   0  0  0  0  0  0  0  0  0  0  0  0
   24.8108   26.9541   39.2868 C   0  0  1  0  0  0  0  0  0  0  0  0
   25.3495   25.7680   39.8995 O   0  0  0  0  0  0  0  0  0  0  0  0
   24.2281   32.0724   39.1202 C   0  0  2  0  0  0  0  0  0  0  0  0
   25.2253   32.1699   40.2240 N   0  0  0  0  0  0  0  0  0  0  0  0
   21.3135   32.1831   32.6036 C   0  0  1  0  0  0  0  0  0  0  0  0
   20.3793   31.5832   31.6298 N   0  0  0  0  0  0  0  0  0  0  0  0
   23.4138   26.6958   38.6755 C   0  0  2  0  0  0  0  0  0  0  0  0
   23.5061   25.6387   37.7153 O   0  0  0  0  0  0  0  0  0  0  0  0
   24.7956   31.1350   38.0118 C   0  0  2  0  0  0  0  0  0  0  0  0
   22.1261   33.3381   31.9371 C   0  0  1  0  0  0  0  0  0  0  0  0
   21.2101   34.3310   31.4871 O   0  0  0  0  0  0  0  0  0  0  0  0
   22.8885   28.0419   38.0136 C   0  0  2  0  0  0  0  0  0  0  0  0
   22.8102   29.1243   39.0197 O   0  0  0  0  0  0  0  0  0  0  0  0
   23.7640   31.0302   36.8558 C   0  0  2  0  0  0  0  0  0  0  0  0
   24.3198   30.1941   35.8430 O   0  0  0  0  0  0  0  0  0  0  0  0
   23.0969   33.9497   32.9977 C   0  0  0  0  0  0  0  0  0  0  0  0
   22.3609   34.4151   34.1977 O   0  0  0  0  0  0  0  0  0  0  0  0
   21.4801   27.8844   37.3717 C   0  0  2  0  0  0  0  0  0  0  0  0
   21.4728   26.7274   36.5282 O   0  0  0  0  0  0  0  0  0  0  0  0
   23.4662   32.4115   36.2220 C   0  0  1  0  0  0  0  0  0  0  0  0
   22.4768   32.2173   35.1742 O   0  0  0  0  0  0  0  0  0  0  0  0
   21.1018   29.0788   36.5237 C   0  0  0  0  0  0  0  0  0  0  0  0
   22.9279   32.8569   30.7270 C   0  0  0  0  0  0  0  0  0  0  0  0
   20.9135   30.2479   31.2660 C   0  0  0  0  0  0  0  0  0  0  0  0
  1  2  1  6  0  0  0
  1  6  1  0  0  0  0
  1 23  1  0  0  0  0
  3  4  1  6  0  0  0
  3  8  1  0  0  0  0
  3 30  1  0  0  0  0
  5  9  1  0  0  0  0
  5 27  1  0  0  0  0
  5 31  1  6  0  0  0
  6  7  1  6  0  0  0
  6 11  1  0  0  0  0
  8 13  1  0  0  0  0
  9 10  1  1  0  0  0
  9 15  1  0  0  0  0
 11 12  1  1  0  0  0
 11 17  1  0  0  0  0
 13 14  1  1  0  0  0
 13 19  1  0  0  0  0
 15 16  1  6  0  0  0
 15 20  1  0  0  0  0
 16 34  1  0  0  0  0
 17 18  1  6  0  0  0
 17 22  1  0  0  0  0
 19  2  1  1  0  0  0
 19 24  1  0  0  0  0
 20 21  1  6  0  0  0
 20 26  1  0  0  0  0
 20 33  1  0  0  0  0
 22 23  1  1  0  0  0
 22 28  1  0  0  0  0
 24 25  1  6  0  0  0
 24 30  1  0  0  0  0
 26 27  1  0  0  0  0
 28 29  1  6  0  0  0
 28 32  1  0  0  0  0
 30 31  1  6  0  0  0
M  END
>  <CHROM.1>
-171.80105723,36.75842651,-131.56981113,-49.64059094,36.85172966,-172.58957290
22.93908424,30.70520740,36.34519909,-0.88108256,-1.06218191,-0.28725338

>  <Name>
ligand

>  <RI>
0

>  <Rbt.Current_Directory>
/home/itssahil/PROJECTS/Mol_Feturizer/New_Systems/rnas/4p3s

>  <Rbt.Executable>
rbdock ($Id: //depot/dev/client3/rdock/2013.1/src/exe/rbdock.cxx#4 $)

>  <Rbt.Library>
libRbt.so (2013.1, Build901 2013/11/27)

>  <Rbt.Parameter_File>
/export/apps/rDock/src/rDock_2013.1_src/data/scripts/dock_solv.prm

>  <Rbt.Receptor>
prm/blind_docking_80.prm

>  <SCORE>
3.07777

>  <SCORE.INTER>
-1.13934

>  <SCORE.INTER.CONST>
1

>  <SCORE.INTER.POLAR>
0

>  <SCORE.INTER.ROT>
6

>  <SCORE.INTER.SOLV>
17.2817

>  <SCORE.INTER.VDW>
-14.1201

>  <SCORE.INTER.norm>
-0.0335099

>  <SCORE.INTRA>
0.411911

>  <SCORE.INTRA.DIHEDRAL>
-8.97319

>  <SCORE.INTRA.DIHEDRAL.0>
15.8194

>  <SCORE.INTRA.POLAR>
0

>  <SCORE.INTRA.POLAR.0>
0

>  <SCORE.INTRA.REPUL>
0

>  <SCORE.INTRA.REPUL.0>
0

>  <SCORE.INTRA.SOLV>
2.44871

>  <SCORE.INTRA.SOLV.lig_0>
-71.9159

>  <SCORE.INTRA.VDW>
3.67415

>  <SCORE.INTRA.VDW.0>
-3.53918

>  <SCORE.INTRA.norm>
0.012115

>  <SCORE.RESTR>
3.80519

>  <SCORE.RESTR.CAVITY>
3.80519

>  <SCORE.RESTR.norm>
0.111917

>  <SCORE.SYSTEM>
0

>  <SCORE.SYSTEM.CONST>
0

>  <SCORE.SYSTEM.DIHEDRAL>
0

>  <SCORE.SYSTEM.SOLV>
0

>  <SCORE.SYSTEM.norm>
0

>  <SCORE.heavy>
34

>  <SCORE.norm>
0.0905226

>  <RMSD>
6.801

$$$$
ligand
 OpenBabel01301917533D
libRbt.so/2013.1/901 2013/11/27
 34 36  0  0  0  0  0  0  0  0999 V2000
   17.6053   22.6442   33.0032 C   0  0  2  0  0  0  0  0  0  0  0  0
   16.9557   23.8983   32.7723 O   0  0  0  0  0  0  0  0  0  0  0  0
   16.0507   27.5758   34.7871 C   0  0  2  0  0  0  0  0  0  0  0  0
   15.9936   28.6363   35.8023 N   0  0  0  0  0  0  0  0  0  0  0  0
   18.2775   29.8014   34.4667 C   0  0  2  0  0  0  0  0  0  0  0  0
   17.6787   21.8730   31.6318 C   0  0  2  0  0  0  0  0  0  0  0  0
   18.4187   22.6553   30.6286 N   0  0  0  0  0  0  0  0  0  0  0  0
   15.5696   26.2408   35.4620 C   0  0  0  0  0  0  0  0  0  0  0  0
   18.0676   31.0619   33.5381 C   0  0  2  0  0  0  0  0  0  0  0  0
   16.7156   31.1468   33.1217 O   0  0  0  0  0  0  0  0  0  0  0  0
   16.2429   21.5589   31.1134 C   0  0  1  0  0  0  0  0  0  0  0  0
   16.3053   20.8540   29.8598 O   0  0  0  0  0  0  0  0  0  0  0  0
   15.6124   25.1129   34.3719 C   0  0  2  0  0  0  0  0  0  0  0  0
   15.1721   23.8096   34.9462 N   0  0  0  0  0  0  0  0  0  0  0  0
   19.0157   30.9143   32.2884 C   0  0  1  0  0  0  0  0  0  0  0  0
   18.8407   32.0480   31.3583 N   0  0  0  0  0  0  0  0  0  0  0  0
   15.5033   20.7359   32.1940 C   0  0  2  0  0  0  0  0  0  0  0  0
   14.1848   20.4259   31.7321 O   0  0  0  0  0  0  0  0  0  0  0  0
   17.0529   24.9488   33.7996 C   0  0  2  0  0  0  0  0  0  0  0  0
   20.4960   30.8372   32.7793 C   0  0  1  0  0  0  0  0  0  0  0  0
   20.8111   32.0527   33.4508 O   0  0  0  0  0  0  0  0  0  0  0  0
   15.4672   21.5772   33.5420 C   0  0  2  0  0  0  0  0  0  0  0  0
   16.8388   21.8961   33.9969 O   0  0  0  0  0  0  0  0  0  0  0  0
   17.5211   26.3033   33.2018 C   0  0  2  0  0  0  0  0  0  0  0  0
   18.8507   26.1344   32.7145 O   0  0  0  0  0  0  0  0  0  0  0  0
   20.6396   29.6318   33.7631 C   0  0  0  0  0  0  0  0  0  0  0  0
   19.6888   29.7435   34.8953 O   0  0  0  0  0  0  0  0  0  0  0  0
   14.7435   20.8276   34.6973 C   0  0  2  0  0  0  0  0  0  0  0  0
   15.1603   19.4578   34.7048 O   0  0  0  0  0  0  0  0  0  0  0  0
   17.5441   27.4266   34.2677 C   0  0  1  0  0  0  0  0  0  0  0  0
   17.9667   28.6542   33.6127 O   0  0  0  0  0  0  0  0  0  0  0  0
   13.2390   20.8535   34.5411 C   0  0  0  0  0  0  0  0  0  0  0  0
   21.4811   30.6724   31.6212 C   0  0  0  0  0  0  0  0  0  0  0  0
   18.4692   31.4854   30.0369 C   0  0  0  0  0  0  0  0  0  0  0  0
  1  2  1  6  0  0  0
  1  6  1  0  0  0  0
  1 23  1  0  0  0  0
  3  4  1  1  0  0  0
  3  8  1  0  0  0  0
  3 30  1  0  0  0  0
  5  9  1  0  0  0  0
  5 27  1  0  0  0  0
  5 31  1  6  0  0  0
  6  7  1  6  0  0  0
  6 11  1  0  0  0  0
  8 13  1  0  0  0  0
  9 10  1  6  0  0  0
  9 15  1  0  0  0  0
 11 12  1  6  0  0  0
 11 17  1  0  0  0  0
 13 14  1  1  0  0  0
 13 19  1  0  0  0  0
 15 16  1  6  0  0  0
 15 20  1  0  0  0  0
 16 34  1  0  0  0  0
 17 18  1  6  0  0  0
 17 22  1  0  0  0  0
 19  2  1  6  0  0  0
 19 24  1  0  0  0  0
 20 21  1  1  0  0  0
 20 26  1  0  0  0  0
 20 33  1  0  0  0  0
 22 23  1  1  0  0  0
 22 28  1  0  0  0  0
 24 25  1  1  0  0  0
 24 30  1  0  0  0  0
 26 27  1  0  0  0  0
 28 29  1  6  0  0  0
 28 32  1  0  0  0  0
 30 31  1  6  0  0  0
M  END
>  <CHROM.1>
-164.94434503,-112.45741449,-122.93131819,43.15900397,74.57245994,-155.75328822
17.30289344,25.97637634,33.18280644,-2.18277747,0.89640677,0.49681804

>  <Name>
ligand

>  <RI>
0

>  <Rbt.Current_Directory>
/home/itssahil/PROJECTS/Mol_Feturizer/New_Systems/rnas/4p3s

>  <Rbt.Executable>
rbdock ($Id: //depot/dev/client3/rdock/2013.1/src/exe/rbdock.cxx#4 $)

>  <Rbt.Library>
libRbt.so (2013.1, Build901 2013/11/27)

>  <Rbt.Parameter_File>
/export/apps/rDock/src/rDock_2013.1_src/data/scripts/dock_solv.prm

>  <Rbt.Receptor>
prm/pocket_docking_7.prm

>  <SCORE>
-9.93509

>  <SCORE.INTER>
-11.513

>  <SCORE.INTER.CONST>
1

>  <SCORE.INTER.POLAR>
0

>  <SCORE.INTER.ROT>
6

>  <SCORE.INTER.SOLV>
18.6282

>  <SCORE.INTER.VDW>
-21.4847

>  <SCORE.INTER.norm>
-0.338618

>  <SCORE.INTRA>
1.5779

>  <SCORE.INTRA.DIHEDRAL>
-2.08928

>  <SCORE.INTRA.DIHEDRAL.0>
15.8194

>  <SCORE.INTRA.POLAR>
0

>  <SCORE.INTRA.POLAR.0>
0

>  <SCORE.INTRA.REPUL>
0

>  <SCORE.INTRA.REPUL.0>
0

>  <SCORE.INTRA.SOLV>
3.76675

>  <SCORE.INTRA.SOLV.lig_0>
-71.9159

>  <SCORE.INTRA.VDW>
0.739168

>  <SCORE.INTRA.VDW.0>
-3.53918

>  <SCORE.INTRA.norm>
0.0464089

>  <SCORE.RESTR>
0

>  <SCORE.RESTR.CAVITY>
0

>  <SCORE.RESTR.norm>
0

>  <SCORE.SYSTEM>
0

>  <SCORE.SYSTEM.CONST>
0

>  <SCORE.SYSTEM.DIHEDRAL>
0

>  <SCORE.SYSTEM.SOLV>
0

>  <SCORE.SYSTEM.norm>
0

>  <SCORE.heavy>
34

>  <SCORE.norm>
-0.292209

>  <RMSD>
6.805

$$$$
ligand
 OpenBabel01301917533D
libRbt.so/2013.1/901 2013/11/27
 34 36  0  0  0  0  0  0  0  0999 V2000
   17.4169   32.2255   36.5082 C   0  0  2  0  0  0  0  0  0  0  0  0
   18.1384   33.2538   35.8224 O   0  0  0  0  0  0  0  0  0  0  0  0
   22.0963   34.7219   36.5852 C   0  0  2  0  0  0  0  0  0  0  0  0
   23.2233   35.4717   37.1565 N   0  0  0  0  0  0  0  0  0  0  0  0
   23.6497   33.2448   38.8474 C   0  0  2  0  0  0  0  0  0  0  0  0
   16.4995   31.4908   35.4598 C   0  0  2  0  0  0  0  0  0  0  0  0
   17.3047   30.9123   34.3721 N   0  0  0  0  0  0  0  0  0  0  0  0
   21.0113   35.7628   36.1285 C   0  0  0  0  0  0  0  0  0  0  0  0
   24.4344   31.9347   39.2515 C   0  0  2  0  0  0  0  0  0  0  0  0
   24.8977   31.2616   38.0936 O   0  0  0  0  0  0  0  0  0  0  0  0
   15.4467   32.4817   34.8779 C   0  0  1  0  0  0  0  0  0  0  0  0
   14.6060   31.8142   33.9187 O   0  0  0  0  0  0  0  0  0  0  0  0
   19.8166   34.9621   35.5009 C   0  0  2  0  0  0  0  0  0  0  0  0
   18.7416   35.8905   35.0485 N   0  0  0  0  0  0  0  0  0  0  0  0
   23.4554   31.0079   40.0669 C   0  0  1  0  0  0  0  0  0  0  0  0
   24.1198   29.7445   40.4453 N   0  0  0  0  0  0  0  0  0  0  0  0
   14.6233   33.0628   36.0510 C   0  0  2  0  0  0  0  0  0  0  0  0
   13.6411   33.9676   35.5365 O   0  0  0  0  0  0  0  0  0  0  0  0
   19.2151   33.9623   36.5343 C   0  0  2  0  0  0  0  0  0  0  0  0
   22.9745   31.7722   41.3409 C   0  0  1  0  0  0  0  0  0  0  0  0
   24.1111   32.0592   42.1491 O   0  0  0  0  0  0  0  0  0  0  0  0
   15.6133   33.7881   37.0609 C   0  0  2  0  0  0  0  0  0  0  0  0
   16.6267   32.8389   37.5730 O   0  0  0  0  0  0  0  0  0  0  0  0
   20.3295   32.9929   37.0137 C   0  0  2  0  0  0  0  0  0  0  0  0
   19.7614   32.1109   37.9797 O   0  0  0  0  0  0  0  0  0  0  0  0
   22.2835   33.1027   40.9007 C   0  0  0  0  0  0  0  0  0  0  0  0
   23.1894   33.9318   40.0701 O   0  0  0  0  0  0  0  0  0  0  0  0
   14.8760   34.4048   38.2842 C   0  0  2  0  0  0  0  0  0  0  0  0
   13.9154   35.3612   37.8230 O   0  0  0  0  0  0  0  0  0  0  0  0
   21.4997   33.7491   37.6898 C   0  0  1  0  0  0  0  0  0  0  0  0
   22.4994   32.7674   38.0787 O   0  0  0  0  0  0  0  0  0  0  0  0
   15.8245   35.1164   39.2237 C   0  0  0  0  0  0  0  0  0  0  0  0
   22.0005   30.9429   42.1791 C   0  0  0  0  0  0  0  0  0  0  0  0
   23.7450   28.7253   39.4345 C   0  0  0  0  0  0  0  0  0  0  0  0
  1  2  1  6  0  0  0
  1  6  1  0  0  0  0
  1 23  1  0  0  0  0
  3  4  1  1  0  0  0
  3  8  1  0  0  0  0
  3 30  1  0  0  0  0
  5  9  1  0  0  0  0
  5 27  1  0  0  0  0
  5 31  1  6  0  0  0
  6  7  1  6  0  0  0
  6 11  1  0  0  0  0
  8 13  1  0  0  0  0
  9 10  1  6  0  0  0
  9 15  1  0  0  0  0
 11 12  1  6  0  0  0
 11 17  1  0  0  0  0
 13 14  1  1  0  0  0
 13 19  1  0  0  0  0
 15 16  1  1  0  0  0
 15 20  1  0  0  0  0
 16 34  1  0  0  0  0
 17 18  1  6  0  0  0
 17 22  1  0  0  0  0
 19  2  1  6  0  0  0
 19 24  1  0  0  0  0
 20 21  1  1  0  0  0
 20 26  1  0  0  0  0
 20 33  1  0  0  0  0
 22 23  1  1  0  0  0
 22 28  1  0  0  0  0
 24 25  1  1  0  0  0
 24 30  1  0  0  0  0
 26 27  1  0  0  0  0
 28 29  1  6  0  0  0
 28 32  1  0  0  0  0
 30 31  1  6  0  0  0
M  END
>  <CHROM.1>
-171.10574274,177.99943062,-96.55227501,-59.31087061,69.88418128,173.39363464
19.73450009,32.95577975,37.75311630,2.70418372,-0.19711057,-0.76804426

>  <Name>
ligand

>  <RI>
0

>  <Rbt.Current_Directory>
/home/itssahil/PROJECTS/Mol_Feturizer/New_Systems/rnas/4p3s

>  <Rbt.Executable>
rbdock ($Id: //depot/dev/client3/rdock/2013.1/src/exe/rbdock.cxx#4 $)

>  <Rbt.Library>
libRbt.so (2013.1, Build901 2013/11/27)

>  <Rbt.Parameter_File>
/export/apps/rDock/src/rDock_2013.1_src/data/scripts/dock_solv.prm

>  <Rbt.Receptor>
prm/pocket_docking_8.prm

>  <SCORE>
-9.73592

>  <SCORE.INTER>
-3.53327

>  <SCORE.INTER.CONST>
1

>  <SCORE.INTER.POLAR>
0

>  <SCORE.INTER.ROT>
6

>  <SCORE.INTER.SOLV>
12.8744

>  <SCORE.INTER.VDW>
-14.247

>  <SCORE.INTER.norm>
-0.10392

>  <SCORE.INTRA>
-6.20266

>  <SCORE.INTRA.DIHEDRAL>
-13.8192

>  <SCORE.INTRA.DIHEDRAL.0>
15.8194

>  <SCORE.INTRA.POLAR>
0

>  <SCORE.INTRA.POLAR.0>
0

>  <SCORE.INTRA.REPUL>
0

>  <SCORE.INTRA.REPUL.0>
0

>  <SCORE.INTRA.SOLV>
-0.585395

>  <SCORE.INTRA.SOLV.lig_0>
-71.9159

>  <SCORE.INTRA.VDW>
0.999619

>  <SCORE.INTRA.VDW.0>
-3.53918

>  <SCORE.INTRA.norm>
-0.182431

>  <SCORE.RESTR>
0

>  <SCORE.RESTR.CAVITY>
0

>  <SCORE.RESTR.norm>
0

>  <SCORE.SYSTEM>
0

>  <SCORE.SYSTEM.CONST>
0

>  <SCORE.SYSTEM.DIHEDRAL>
0

>  <SCORE.SYSTEM.SOLV>
0

>  <SCORE.SYSTEM.norm>
0

>  <SCORE.heavy>
34

>  <SCORE.norm>
-0.286351

>  <RMSD>
6.814

$$$$
ligand
 OpenBabel01301917533D
libRbt.so/2013.1/901 2013/11/27
 34 36  0  0  0  0  0  0  0  0999 V2000
   17.8837   22.6433   32.8946 C   0  0  2  0  0  0  0  0  0  0  0  0
   17.0328   23.7843   32.7457 O   0  0  0  0  0  0  0  0  0  0  0  0
   15.8849   27.3818   34.7810 C   0  0  2  0  0  0  0  0  0  0  0  0
   15.7363   28.4183   35.8116 N   0  0  0  0  0  0  0  0  0  0  0  0
   18.0930   29.6817   34.6171 C   0  0  2  0  0  0  0  0  0  0  0  0
   18.2430   22.1116   31.4562 C   0  0  2  0  0  0  0  0  0  0  0  0
   18.9177   23.1531   30.6649 N   0  0  0  0  0  0  0  0  0  0  0  0
   15.4251   26.0156   35.4065 C   0  0  0  0  0  0  0  0  0  0  0  0
   17.8832   30.9676   33.7239 C   0  0  2  0  0  0  0  0  0  0  0  0
   16.5376   31.0489   33.2865 O   0  0  0  0  0  0  0  0  0  0  0  0
   16.9545   21.6320   30.7222 C   0  0  1  0  0  0  0  0  0  0  0  0
   17.2784   21.1453   29.4067 O   0  0  0  0  0  0  0  0  0  0  0  0
   15.5659   24.9128   34.2991 C   0  0  2  0  0  0  0  0  0  0  0  0
   15.1503   23.5819   34.8267 N   0  0  0  0  0  0  0  0  0  0  0  0
   18.8545   30.8700   32.4872 C   0  0  1  0  0  0  0  0  0  0  0  0
   18.6812   32.0296   31.5892 N   0  0  0  0  0  0  0  0  0  0  0  0
   16.2801   20.5394   31.5844 C   0  0  2  0  0  0  0  0  0  0  0  0
   15.0996   20.0759   30.9215 O   0  0  0  0  0  0  0  0  0  0  0  0
   17.0379   24.8165   33.7958 C   0  0  2  0  0  0  0  0  0  0  0  0
   20.3270   30.7958   33.0015 C   0  0  1  0  0  0  0  0  0  0  0  0
   20.6151   31.9937   33.7152 O   0  0  0  0  0  0  0  0  0  0  0  0
   15.9462   21.1493   33.0136 C   0  0  2  0  0  0  0  0  0  0  0  0
   17.1776   21.6319   33.6775 O   0  0  0  0  0  0  0  0  0  0  0  0
   17.4804   26.2002   33.2471 C   0  0  2  0  0  0  0  0  0  0  0  0
   18.8378   26.0931   32.8232 O   0  0  0  0  0  0  0  0  0  0  0  0
   20.4687   29.5625   33.9504 C   0  0  0  0  0  0  0  0  0  0  0  0
   19.4973   29.6277   35.0685 O   0  0  0  0  0  0  0  0  0  0  0  0
   15.2657   20.1196   33.9606 C   0  0  2  0  0  0  0  0  0  0  0  0
   14.0837   19.6107   33.3329 O   0  0  0  0  0  0  0  0  0  0  0  0
   17.4066   27.3014   34.3335 C   0  0  1  0  0  0  0  0  0  0  0  0
   17.8114   28.5576   33.7230 O   0  0  0  0  0  0  0  0  0  0  0  0
   14.8601   20.7382   35.2803 C   0  0  0  0  0  0  0  0  0  0  0  0
   21.3339   30.6786   31.8564 C   0  0  0  0  0  0  0  0  0  0  0  0
   18.4432   31.5023   30.2232 C   0  0  0  0  0  0  0  0  0  0  0  0
  1  2  1  6  0  0  0
  1  6  1  0  0  0  0
  1 23  1  0  0  0  0
  3  4  1  1  0  0  0
  3  8  1  0  0  0  0
  3 30  1  0  0  0  0
  5  9  1  0  0  0  0
  5 27  1  0  0  0  0
  5 31  1  6  0  0  0
  6  7  1  6  0  0  0
  6 11  1  0  0  0  0
  8 13  1  0  0  0  0
  9 10  1  6  0  0  0
  9 15  1  0  0  0  0
 11 12  1  6  0  0  0
 11 17  1  0  0  0  0
 13 14  1  1  0  0  0
 13 19  1  0  0  0  0
 15 16  1  6  0  0  0
 15 20  1  0  0  0  0
 16 34  1  0  0  0  0
 17 18  1  6  0  0  0
 17 22  1  0  0  0  0
 19  2  1  6  0  0  0
 19 24  1  0  0  0  0
 20 21  1  1  0  0  0
 20 26  1  0  0  0  0
 20 33  1  0  0  0  0
 22 23  1  1  0  0  0
 22 28  1  0  0  0  0
 24 25  1  1  0  0  0
 24 30  1  0  0  0  0
 26 27  1  0  0  0  0
 28 29  1  6  0  0  0
 28 32  1  0  0  0  0
 30 31  1  6  0  0  0
M  END
>  <CHROM.1>
-152.34716203,-121.99574801,-127.21510404,-56.24544088,77.26963551,-156.37970820
17.41719567,25.88712820,33.10781404,-2.06473098,0.88816493,0.45493785

>  <Name>
ligand

>  <RI>
0

>  <Rbt.Current_Directory>
/home/itssahil/PROJECTS/Mol_Feturizer/New_Systems/rnas/4p3s

>  <Rbt.Executable>
rbdock ($Id: //depot/dev/client3/rdock/2013.1/src/exe/rbdock.cxx#4 $)

>  <Rbt.Library>
libRbt.so (2013.1, Build901 2013/11/27)

>  <Rbt.Parameter_File>
/export/apps/rDock/src/rDock_2013.1_src/data/scripts/dock_solv.prm

>  <Rbt.Receptor>
prm/pocket_docking_7.prm

>  <SCORE>
-10.5801

>  <SCORE.INTER>
-12.3195

>  <SCORE.INTER.CONST>
1

>  <SCORE.INTER.POLAR>
0

>  <SCORE.INTER.ROT>
6

>  <SCORE.INTER.SOLV>
19.0041

>  <SCORE.INTER.VDW>
-22.1477

>  <SCORE.INTER.norm>
-0.362338

>  <SCORE.INTRA>
1.73942

>  <SCORE.INTRA.DIHEDRAL>
-0.409768

>  <SCORE.INTRA.DIHEDRAL.0>
15.8194

>  <SCORE.INTRA.POLAR>
0

>  <SCORE.INTRA.POLAR.0>
0

>  <SCORE.INTRA.REPUL>
0

>  <SCORE.INTRA.REPUL.0>
0

>  <SCORE.INTRA.SOLV>
3.45667

>  <SCORE.INTRA.SOLV.lig_0>
-71.9159

>  <SCORE.INTRA.VDW>
0.215975

>  <SCORE.INTRA.VDW.0>
-3.53918

>  <SCORE.INTRA.norm>
0.0511595

>  <SCORE.RESTR>
0

>  <SCORE.RESTR.CAVITY>
0

>  <SCORE.RESTR.norm>
0

>  <SCORE.SYSTEM>
0

>  <SCORE.SYSTEM.CONST>
0

>  <SCORE.SYSTEM.DIHEDRAL>
0

>  <SCORE.SYSTEM.SOLV>
0

>  <SCORE.SYSTEM.norm>
0

>  <SCORE.heavy>
34

>  <SCORE.norm>
-0.311178

>  <RMSD>
6.860

$$$$
ligand
 OpenBabel01301917533D
libRbt.so/2013.1/901 2013/11/27
 34 36  0  0  0  0  0  0  0  0999 V2000
   20.0053   23.7399   32.5380 C   0  0  2  0  0  0  0  0  0  0  0  0
   18.5755   23.7509   32.4761 O   0  0  0  0  0  0  0  0  0  0  0  0
   15.5487   26.0994   34.4061 C   0  0  2  0  0  0  0  0  0  0  0  0
   14.6678   26.6750   35.4314 N   0  0  0  0  0  0  0  0  0  0  0  0
   18.2901   28.6181   35.2850 C   0  0  2  0  0  0  0  0  0  0  0  0
   20.5451   23.0502   31.2289 C   0  0  2  0  0  0  0  0  0  0  0  0
   20.0906   23.7721   30.0296 N   0  0  0  0  0  0  0  0  0  0  0  0
   15.4119   24.5358   34.4807 C   0  0  0  0  0  0  0  0  0  0  0  0
   17.7787   30.0737   35.6239 C   0  0  2  0  0  0  0  0  0  0  0  0
   16.6637   30.0129   36.4965 O   0  0  0  0  0  0  0  0  0  0  0  0
   20.0755   21.5652   31.1701 C   0  0  1  0  0  0  0  0  0  0  0  0
   20.5667   20.9309   29.9747 O   0  0  0  0  0  0  0  0  0  0  0  0
   16.3383   23.9227   33.3725 C   0  0  2  0  0  0  0  0  0  0  0  0
   16.2632   22.4339   33.3889 N   0  0  0  0  0  0  0  0  0  0  0  0
   17.3778   30.7800   34.2738 C   0  0  1  0  0  0  0  0  0  0  0  0
   16.8547   32.1379   34.5254 N   0  0  0  0  0  0  0  0  0  0  0  0
   20.5751   20.8449   32.4442 C   0  0  2  0  0  0  0  0  0  0  0  0
   20.1644   19.4746   32.4043 O   0  0  0  0  0  0  0  0  0  0  0  0
   17.8207   24.3533   33.5876 C   0  0  2  0  0  0  0  0  0  0  0  0
   18.6290   30.8432   33.3418 C   0  0  1  0  0  0  0  0  0  0  0  0
   19.6306   31.6238   33.9858 O   0  0  0  0  0  0  0  0  0  0  0  0
   19.9890   21.5933   33.7179 C   0  0  2  0  0  0  0  0  0  0  0  0
   20.4162   23.0101   33.7352 O   0  0  0  0  0  0  0  0  0  0  0  0
   17.9079   25.9037   33.5751 C   0  0  2  0  0  0  0  0  0  0  0  0
   19.2665   26.2711   33.8050 O   0  0  0  0  0  0  0  0  0  0  0  0
   19.1554   29.3913   33.1041 C   0  0  0  0  0  0  0  0  0  0  0  0
   19.4572   28.7104   34.3860 O   0  0  0  0  0  0  0  0  0  0  0  0
   20.4414   20.9423   35.0566 C   0  0  2  0  0  0  0  0  0  0  0  0
   19.9599   19.5950   35.1123 O   0  0  0  0  0  0  0  0  0  0  0  0
   17.0473   26.5384   34.6954 C   0  0  1  0  0  0  0  0  0  0  0  0
   17.1707   27.9833   34.5878 O   0  0  0  0  0  0  0  0  0  0  0  0
   19.8991   21.6786   36.2618 C   0  0  0  0  0  0  0  0  0  0  0  0
   18.3151   31.5001   31.9969 C   0  0  0  0  0  0  0  0  0  0  0  0
   15.3747   32.0441   34.5634 C   0  0  0  0  0  0  0  0  0  0  0  0
  1  2  1  6  0  0  0
  1  6  1  0  0  0  0
  1 23  1  0  0  0  0
  3  4  1  1  0  0  0
  3  8  1  0  0  0  0
  3 30  1  0  0  0  0
  5  9  1  0  0  0  0
  5 27  1  0  0  0  0
  5 31  1  6  0  0  0
  6  7  1  6  0  0  0
  6 11  1  0  0  0  0
  8 13  1  0  0  0  0
  9 10  1  1  0  0  0
  9 15  1  0  0  0  0
 11 12  1  6  0  0  0
 11 17  1  0  0  0  0
 13 14  1  1  0  0  0
 13 19  1  0  0  0  0
 15 16  1  1  0  0  0
 15 20  1  0  0  0  0
 16 34  1  0  0  0  0
 17 18  1  6  0  0  0
 17 22  1  0  0  0  0
 19  2  1  6  0  0  0
 19 24  1  0  0  0  0
 20 21  1  1  0  0  0
 20 26  1  0  0  0  0
 20 33  1  0  0  0  0
 22 23  1  1  0  0  0
 22 28  1  0  0  0  0
 24 25  1  1  0  0  0
 24 30  1  0  0  0  0
 26 27  1  0  0  0  0
 28 29  1  6  0  0  0
 28 32  1  0  0  0  0
 30 31  1  6  0  0  0
M  END
>  <CHROM.1>
-179.68994216,-167.60269318,-96.24033699,-61.56329432,157.56922816,-151.60835088
18.44313554,25.71435660,33.68532792,-1.21895245,0.75406712,-0.07893345

>  <Name>
ligand

>  <RI>
0

>  <Rbt.Current_Directory>
/home/itssahil/PROJECTS/Mol_Feturizer/New_Systems/rnas/4p3s

>  <Rbt.Executable>
rbdock ($Id: //depot/dev/client3/rdock/2013.1/src/exe/rbdock.cxx#4 $)

>  <Rbt.Library>
libRbt.so (2013.1, Build901 2013/11/27)

>  <Rbt.Parameter_File>
/export/apps/rDock/src/rDock_2013.1_src/data/scripts/dock_solv.prm

>  <Rbt.Receptor>
prm/pocket_docking_8.prm

>  <SCORE>
-17.7169

>  <SCORE.INTER>
-13.2837

>  <SCORE.INTER.CONST>
1

>  <SCORE.INTER.POLAR>
0

>  <SCORE.INTER.ROT>
6

>  <SCORE.INTER.SOLV>
23.3254

>  <SCORE.INTER.VDW>
-24.2309

>  <SCORE.INTER.norm>
-0.390696

>  <SCORE.INTRA>
-4.43325

>  <SCORE.INTRA.DIHEDRAL>
-8.7282

>  <SCORE.INTRA.DIHEDRAL.0>
15.8194

>  <SCORE.INTRA.POLAR>
0

>  <SCORE.INTRA.POLAR.0>
0

>  <SCORE.INTRA.REPUL>
0

>  <SCORE.INTRA.REPUL.0>
0

>  <SCORE.INTRA.SOLV>
-1.27036

>  <SCORE.INTRA.SOLV.lig_0>
-71.9159

>  <SCORE.INTRA.VDW>
0.566028

>  <SCORE.INTRA.VDW.0>
-3.53918

>  <SCORE.INTRA.norm>
-0.13039

>  <SCORE.RESTR>
0

>  <SCORE.RESTR.CAVITY>
0

>  <SCORE.RESTR.norm>
0

>  <SCORE.SYSTEM>
0

>  <SCORE.SYSTEM.CONST>
0

>  <SCORE.SYSTEM.DIHEDRAL>
0

>  <SCORE.SYSTEM.SOLV>
0

>  <SCORE.SYSTEM.norm>
0

>  <SCORE.heavy>
34

>  <SCORE.norm>
-0.521085

>  <RMSD>
6.888

$$$$
ligand
 OpenBabel01301917533D
libRbt.so/2013.1/901 2013/11/27
 34 36  0  0  0  0  0  0  0  0999 V2000
   19.1960   32.2483   32.2755 C   0  0  2  0  0  0  0  0  0  0  0  0
   20.6171   32.2752   32.1088 O   0  0  0  0  0  0  0  0  0  0  0  0
   23.7423   33.7779   34.6342 C   0  0  2  0  0  0  0  0  0  0  0  0
   24.6516   34.6903   35.3407 N   0  0  0  0  0  0  0  0  0  0  0  0
   22.9427   34.4772   37.5199 C   0  0  2  0  0  0  0  0  0  0  0  0
   18.6013   31.2308   31.2306 C   0  0  2  0  0  0  0  0  0  0  0  0
   19.1651   29.8858   31.4283 N   0  0  0  0  0  0  0  0  0  0  0  0
   23.8232   34.1135   33.1012 C   0  0  0  0  0  0  0  0  0  0  0  0
   23.9677   33.4877   38.2025 C   0  0  2  0  0  0  0  0  0  0  0  0
   24.8590   32.9585   37.2361 O   0  0  0  0  0  0  0  0  0  0  0  0
   18.8851   31.7223   29.7791 C   0  0  1  0  0  0  0  0  0  0  0  0
   18.3433   30.7950   28.8205 O   0  0  0  0  0  0  0  0  0  0  0  0
   22.8663   33.1257   32.3457 C   0  0  2  0  0  0  0  0  0  0  0  0
   22.8879   33.3916   30.8789 N   0  0  0  0  0  0  0  0  0  0  0  0
   23.1494   32.3268   38.8844 C   0  0  1  0  0  0  0  0  0  0  0  0
   24.0547   31.3436   39.5126 N   0  0  0  0  0  0  0  0  0  0  0  0
   18.2753   33.1341   29.6142 C   0  0  2  0  0  0  0  0  0  0  0  0
   18.5145   33.5997   28.2823 O   0  0  0  0  0  0  0  0  0  0  0  0
   21.4022   33.2685   32.8607 C   0  0  2  0  0  0  0  0  0  0  0  0
   22.1886   32.9405   39.9514 C   0  0  1  0  0  0  0  0  0  0  0  0
   22.9754   33.5895   40.9449 O   0  0  0  0  0  0  0  0  0  0  0  0
   18.9239   34.1009   30.6961 C   0  0  2  0  0  0  0  0  0  0  0  0
   18.6745   33.5968   32.0650 O   0  0  0  0  0  0  0  0  0  0  0  0
   21.3709   32.9962   34.3892 C   0  0  2  0  0  0  0  0  0  0  0  0
   20.0282   33.1638   34.8397 O   0  0  0  0  0  0  0  0  0  0  0  0
   21.2526   33.9774   39.2510 C   0  0  0  0  0  0  0  0  0  0  0  0
   22.0354   35.0224   38.5487 O   0  0  0  0  0  0  0  0  0  0  0  0
   18.3683   35.5517   30.6134 C   0  0  2  0  0  0  0  0  0  0  0  0
   16.9376   35.5121   30.6562 O   0  0  0  0  0  0  0  0  0  0  0  0
   22.2628   33.9923   35.1705 C   0  0  1  0  0  0  0  0  0  0  0  0
   22.1907   33.6441   36.5805 O   0  0  0  0  0  0  0  0  0  0  0  0
   18.7747   36.2469   29.3327 C   0  0  0  0  0  0  0  0  0  0  0  0
   21.3410   31.8744   40.6470 C   0  0  0  0  0  0  0  0  0  0  0  0
   24.2859   30.2592   38.5269 C   0  0  0  0  0  0  0  0  0  0  0  0
  1  2  1  6  0  0  0
  1  6  1  0  0  0  0
  1 23  1  0  0  0  0
  3  4  1  1  0  0  0
  3  8  1  0  0  0  0
  3 30  1  0  0  0  0
  5  9  1  0  0  0  0
  5 27  1  0  0  0  0
  5 31  1  6  0  0  0
  6  7  1  6  0  0  0
  6 11  1  0  0  0  0
  8 13  1  0  0  0  0
  9 10  1  6  0  0  0
  9 15  1  0  0  0  0
 11 12  1  6  0  0  0
 11 17  1  0  0  0  0
 13 14  1  6  0  0  0
 13 19  1  0  0  0  0
 15 16  1  1  0  0  0
 15 20  1  0  0  0  0
 16 34  1  0  0  0  0
 17 18  1  6  0  0  0
 17 22  1  0  0  0  0
 19  2  1  6  0  0  0
 19 24  1  0  0  0  0
 20 21  1  1  0  0  0
 20 26  1  0  0  0  0
 20 33  1  0  0  0  0
 22 23  1  1  0  0  0
 22 28  1  0  0  0  0
 24 25  1  1  0  0  0
 24 30  1  0  0  0  0
 26 27  1  0  0  0  0
 28 29  1  6  0  0  0
 28 32  1  0  0  0  0
 30 31  1  1  0  0  0
M  END
>  <CHROM.1>
172.87369485,-174.34737214,-94.07706375,52.43622664,65.78445104,-119.26792818
21.19730159,33.19224573,34.30321498,2.35862545,-0.89517502,-0.87095404

>  <Name>
ligand

>  <RI>
0

>  <Rbt.Current_Directory>
/home/itssahil/PROJECTS/Mol_Feturizer/New_Systems/rnas/4p3s

>  <Rbt.Executable>
rbdock ($Id: //depot/dev/client3/rdock/2013.1/src/exe/rbdock.cxx#4 $)

>  <Rbt.Library>
libRbt.so (2013.1, Build901 2013/11/27)

>  <Rbt.Parameter_File>
/export/apps/rDock/src/rDock_2013.1_src/data/scripts/dock_solv.prm

>  <Rbt.Receptor>
prm/blind_docking_100.prm

>  <SCORE>
10.4868

>  <SCORE.INTER>
5.24853

>  <SCORE.INTER.CONST>
1

>  <SCORE.INTER.POLAR>
0

>  <SCORE.INTER.ROT>
6

>  <SCORE.INTER.SOLV>
21.152

>  <SCORE.INTER.VDW>
-11.1516

>  <SCORE.INTER.norm>
0.154369

>  <SCORE.INTRA>
-1.07932

>  <SCORE.INTRA.DIHEDRAL>
-7.06692

>  <SCORE.INTRA.DIHEDRAL.0>
15.8194

>  <SCORE.INTRA.POLAR>
0

>  <SCORE.INTRA.POLAR.0>
0

>  <SCORE.INTRA.REPUL>
0

>  <SCORE.INTRA.REPUL.0>
0

>  <SCORE.INTRA.SOLV>
1.15925

>  <SCORE.INTRA.SOLV.lig_0>
-71.9159

>  <SCORE.INTRA.VDW>
1.87452

>  <SCORE.INTRA.VDW.0>
-3.53918

>  <SCORE.INTRA.norm>
-0.0317447

>  <SCORE.RESTR>
6.31758

>  <SCORE.RESTR.CAVITY>
6.31758

>  <SCORE.RESTR.norm>
0.185811

>  <SCORE.SYSTEM>
0

>  <SCORE.SYSTEM.CONST>
0

>  <SCORE.SYSTEM.DIHEDRAL>
0

>  <SCORE.SYSTEM.SOLV>
0

>  <SCORE.SYSTEM.norm>
0

>  <SCORE.heavy>
34

>  <SCORE.norm>
0.308435

>  <RMSD>
6.909

$$$$
ligand
 OpenBabel01301917533D
libRbt.so/2013.1/901 2013/11/27
 34 36  0  0  0  0  0  0  0  0999 V2000
   21.5388   28.5739   40.4688 C   0  0  2  0  0  0  0  0  0  0  0  0
   22.4830   29.6224   40.2297 O   0  0  0  0  0  0  0  0  0  0  0  0
   23.1003   32.1471   36.8170 C   0  0  2  0  0  0  0  0  0  0  0  0
   23.5000   32.6272   35.4871 N   0  0  0  0  0  0  0  0  0  0  0  0
   20.8693   32.0092   34.6419 C   0  0  2  0  0  0  0  0  0  0  0  0
   21.4408   28.3510   42.0249 C   0  0  2  0  0  0  0  0  0  0  0  0
   21.0181   29.5851   42.7064 N   0  0  0  0  0  0  0  0  0  0  0  0
   24.3726   31.5360   37.5075 C   0  0  0  0  0  0  0  0  0  0  0  0
   19.3838   32.3564   34.2318 C   0  0  2  0  0  0  0  0  0  0  0  0
   18.9102   33.4593   34.9853 O   0  0  0  0  0  0  0  0  0  0  0  0
   22.8129   27.8717   42.5875 C   0  0  1  0  0  0  0  0  0  0  0  0
   22.7279   27.6669   44.0099 O   0  0  0  0  0  0  0  0  0  0  0  0
   23.9490   31.0412   38.9351 C   0  0  2  0  0  0  0  0  0  0  0  0
   25.1115   30.4408   39.6498 N   0  0  0  0  0  0  0  0  0  0  0  0
   18.4906   31.0869   34.5015 C   0  0  1  0  0  0  0  0  0  0  0  0
   17.0770   31.3583   34.1715 N   0  0  0  0  0  0  0  0  0  0  0  0
   23.2172   26.5749   41.8479 C   0  0  2  0  0  0  0  0  0  0  0  0
   24.4707   26.1106   42.3588 O   0  0  0  0  0  0  0  0  0  0  0  0
   22.8140   29.9773   38.8395 C   0  0  2  0  0  0  0  0  0  0  0  0
   19.0293   29.8954   33.6480 C   0  0  1  0  0  0  0  0  0  0  0  0
   18.9237   30.2442   32.2716 O   0  0  0  0  0  0  0  0  0  0  0  0
   23.2980   26.8788   40.2900 C   0  0  2  0  0  0  0  0  0  0  0  0
   21.9960   27.3672   39.7836 O   0  0  0  0  0  0  0  0  0  0  0  0
   21.5996   30.5935   38.0932 C   0  0  2  0  0  0  0  0  0  0  0  0
   20.5896   29.5918   37.9918 O   0  0  0  0  0  0  0  0  0  0  0  0
   20.5255   29.6430   34.0209 C   0  0  0  0  0  0  0  0  0  0  0  0
   21.3415   30.8668   33.8352 O   0  0  0  0  0  0  0  0  0  0  0  0
   23.6956   25.6277   39.4551 C   0  0  2  0  0  0  0  0  0  0  0  0
   25.0445   25.2620   39.7664 O   0  0  0  0  0  0  0  0  0  0  0  0
   21.9717   31.0411   36.6581 C   0  0  1  0  0  0  0  0  0  0  0  0
   20.7861   31.6254   36.0518 O   0  0  0  0  0  0  0  0  0  0  0  0
   23.6170   25.8856   37.9665 C   0  0  0  0  0  0  0  0  0  0  0  0
   18.2236   28.6146   33.8703 C   0  0  0  0  0  0  0  0  0  0  0  0
   16.3089   31.3187   35.4400 C   0  0  0  0  0  0  0  0  0  0  0  0
  1  2  1  1  0  0  0
  1  6  1  0  0  0  0
  1 23  1  0  0  0  0
  3  4  1  6  0  0  0
  3  8  1  0  0  0  0
  3 30  1  0  0  0  0
  5  9  1  0  0  0  0
  5 27  1  0  0  0  0
  5 31  1  1  0  0  0
  6  7  1  1  0  0  0
  6 11  1  0  0  0  0
  8 13  1  0  0  0  0
  9 10  1  1  0  0  0
  9 15  1  0  0  0  0
 11 12  1  1  0  0  0
 11 17  1  0  0  0  0
 13 14  1  6  0  0  0
 13 19  1  0  0  0  0
 15 16  1  6  0  0  0
 15 20  1  0  0  0  0
 16 34  1  0  0  0  0
 17 18  1  1  0  0  0
 17 22  1  0  0  0  0
 19  2  1  1  0  0  0
 19 24  1  0  0  0  0
 20 21  1  6  0  0  0
 20 26  1  0  0  0  0
 20 33  1  0  0  0  0
 22 23  1  6  0  0  0
 22 28  1  0  0  0  0
 24 25  1  6  0  0  0
 24 30  1  0  0  0  0
 26 27  1  0  0  0  0
 28 29  1  1  0  0  0
 28 32  1  0  0  0  0
 30 31  1  1  0  0  0
M  END
>  <CHROM.1>
176.70113349,-174.88124644,-113.44340328,-66.95835273,70.11156213,170.29006849
21.58528475,29.58892976,37.79504951,0.99857157,0.58383285,2.41167178

>  <Name>
ligand

>  <RI>
0

>  <Rbt.Current_Directory>
/home/itssahil/PROJECTS/Mol_Feturizer/New_Systems/rnas/4p3s

>  <Rbt.Executable>
rbdock ($Id: //depot/dev/client3/rdock/2013.1/src/exe/rbdock.cxx#4 $)

>  <Rbt.Library>
libRbt.so (2013.1, Build901 2013/11/27)

>  <Rbt.Parameter_File>
/export/apps/rDock/src/rDock_2013.1_src/data/scripts/dock_solv.prm

>  <Rbt.Receptor>
prm/pocket_docking_7.prm

>  <SCORE>
-6.48389

>  <SCORE.INTER>
-0.204285

>  <SCORE.INTER.CONST>
1

>  <SCORE.INTER.POLAR>
0

>  <SCORE.INTER.ROT>
6

>  <SCORE.INTER.SOLV>
11.9408

>  <SCORE.INTER.VDW>
-11.7164

>  <SCORE.INTER.norm>
-0.00600838

>  <SCORE.INTRA>
-6.27961

>  <SCORE.INTRA.DIHEDRAL>
-13.2541

>  <SCORE.INTRA.DIHEDRAL.0>
15.8194

>  <SCORE.INTRA.POLAR>
0

>  <SCORE.INTRA.POLAR.0>
0

>  <SCORE.INTRA.REPUL>
0

>  <SCORE.INTRA.REPUL.0>
0

>  <SCORE.INTRA.SOLV>
-0.44179

>  <SCORE.INTRA.SOLV.lig_0>
-71.9159

>  <SCORE.INTRA.VDW>
0.568315

>  <SCORE.INTRA.VDW.0>
-3.53918

>  <SCORE.INTRA.norm>
-0.184694

>  <SCORE.RESTR>
0

>  <SCORE.RESTR.CAVITY>
0

>  <SCORE.RESTR.norm>
0

>  <SCORE.SYSTEM>
0

>  <SCORE.SYSTEM.CONST>
0

>  <SCORE.SYSTEM.DIHEDRAL>
0

>  <SCORE.SYSTEM.SOLV>
0

>  <SCORE.SYSTEM.norm>
0

>  <SCORE.heavy>
34

>  <SCORE.norm>
-0.190703

>  <RMSD>
6.965

$$$$
ligand
 OpenBabel01301917533D
libRbt.so/2013.1/901 2013/11/27
 34 36  0  0  0  0  0  0  0  0999 V2000
   16.8032   24.0098   33.0145 C   0  0  2  0  0  0  0  0  0  0  0  0
   16.8884   24.5982   34.3163 O   0  0  0  0  0  0  0  0  0  0  0  0
   17.7498   28.6228   35.5258 C   0  0  2  0  0  0  0  0  0  0  0  0
   17.7073   30.0867   35.6434 N   0  0  0  0  0  0  0  0  0  0  0  0
   16.0954   29.7169   37.8813 C   0  0  2  0  0  0  0  0  0  0  0  0
   16.0240   22.6472   33.1450 C   0  0  2  0  0  0  0  0  0  0  0  0
   14.6773   22.8635   33.6977 N   0  0  0  0  0  0  0  0  0  0  0  0
   17.9213   28.2696   34.0043 C   0  0  0  0  0  0  0  0  0  0  0  0
   16.2312   29.7281   39.4550 C   0  0  2  0  0  0  0  0  0  0  0  0
   17.5249   29.2965   39.8406 O   0  0  0  0  0  0  0  0  0  0  0  0
   16.8200   21.6562   34.0467 C   0  0  1  0  0  0  0  0  0  0  0  0
   16.1112   20.4092   34.1689 O   0  0  0  0  0  0  0  0  0  0  0  0
   17.9860   26.7065   33.8820 C   0  0  2  0  0  0  0  0  0  0  0  0
   18.1431   26.2967   32.4573 N   0  0  0  0  0  0  0  0  0  0  0  0
   15.1347   28.7654   40.0493 C   0  0  1  0  0  0  0  0  0  0  0  0
   15.2317   28.7025   41.5215 N   0  0  0  0  0  0  0  0  0  0  0  0
   18.2241   21.4558   33.4300 C   0  0  2  0  0  0  0  0  0  0  0  0
   18.9685   20.5382   34.2373 O   0  0  0  0  0  0  0  0  0  0  0  0
   16.6925   26.0512   34.4536 C   0  0  2  0  0  0  0  0  0  0  0  0
   13.7230   29.2752   39.6186 C   0  0  1  0  0  0  0  0  0  0  0  0
   13.5301   30.5774   40.1612 O   0  0  0  0  0  0  0  0  0  0  0  0
   18.9467   22.8681   33.3338 C   0  0  2  0  0  0  0  0  0  0  0  0
   18.1567   23.8049   32.5041 O   0  0  0  0  0  0  0  0  0  0  0  0
   16.5192   26.4755   35.9373 C   0  0  2  0  0  0  0  0  0  0  0  0
   15.3145   25.8892   36.4260 O   0  0  0  0  0  0  0  0  0  0  0  0
   13.6614   29.3331   38.0583 C   0  0  0  0  0  0  0  0  0  0  0  0
   14.7452   30.1813   37.5069 O   0  0  0  0  0  0  0  0  0  0  0  0
   20.3722   22.7714   32.7182 C   0  0  2  0  0  0  0  0  0  0  0  0
   20.9936   24.0607   32.7624 O   0  0  0  0  0  0  0  0  0  0  0  0
   16.3953   28.0120   36.0866 C   0  0  1  0  0  0  0  0  0  0  0  0
   16.2642   28.3131   37.5033 O   0  0  0  0  0  0  0  0  0  0  0  0
   20.3417   22.3208   31.2744 C   0  0  0  0  0  0  0  0  0  0  0  0
   12.6003   28.3782   40.1418 C   0  0  0  0  0  0  0  0  0  0  0  0
   15.6864   27.3364   41.8790 C   0  0  0  0  0  0  0  0  0  0  0  0
  1  2  1  1  0  0  0
  1  6  1  0  0  0  0
  1 23  1  0  0  0  0
  3  4  1  6  0  0  0
  3  8  1  0  0  0  0
  3 30  1  0  0  0  0
  5  9  1  0  0  0  0
  5 27  1  0  0  0  0
  5 31  1  1  0  0  0
  6  7  1  1  0  0  0
  6 11  1  0  0  0  0
  8 13  1  0  0  0  0
  9 10  1  6  0  0  0
  9 15  1  0  0  0  0
 11 12  1  6  0  0  0
 11 17  1  0  0  0  0
 13 14  1  6  0  0  0
 13 19  1  0  0  0  0
 15 16  1  1  0  0  0
 15 20  1  0  0  0  0
 16 34  1  0  0  0  0
 17 18  1  1  0  0  0
 17 22  1  0  0  0  0
 19  2  1  1  0  0  0
 19 24  1  0  0  0  0
 20 21  1  1  0  0  0
 20 26  1  0  0  0  0
 20 33  1  0  0  0  0
 22 23  1  6  0  0  0
 22 28  1  0  0  0  0
 24 25  1  6  0  0  0
 24 30  1  0  0  0  0
 26 27  1  0  0  0  0
 28 29  1  6  0  0  0
 28 32  1  0  0  0  0
 30 31  1  1  0  0  0
M  END
>  <CHROM.1>
-139.22105941,-73.33858667,-111.97032082,-175.51177530,66.21051806,-170.69876715
16.71376500,26.16076821,35.92039998,1.02936030,-0.84244471,-2.79489630

>  <Name>
ligand

>  <RI>
0

>  <Rbt.Current_Directory>
/home/itssahil/PROJECTS/Mol_Feturizer/New_Systems/rnas/4p3s

>  <Rbt.Executable>
rbdock ($Id: //depot/dev/client3/rdock/2013.1/src/exe/rbdock.cxx#4 $)

>  <Rbt.Library>
libRbt.so (2013.1, Build901 2013/11/27)

>  <Rbt.Parameter_File>
/export/apps/rDock/src/rDock_2013.1_src/data/scripts/dock_solv.prm

>  <Rbt.Receptor>
prm/pocket_docking_8.prm

>  <SCORE>
-10.837

>  <SCORE.INTER>
-10.1404

>  <SCORE.INTER.CONST>
1

>  <SCORE.INTER.POLAR>
0

>  <SCORE.INTER.ROT>
6

>  <SCORE.INTER.SOLV>
16.3075

>  <SCORE.INTER.VDW>
-19.7961

>  <SCORE.INTER.norm>
-0.298248

>  <SCORE.INTRA>
-0.69656

>  <SCORE.INTRA.DIHEDRAL>
-7.50995

>  <SCORE.INTRA.DIHEDRAL.0>
15.8194

>  <SCORE.INTRA.POLAR>
0

>  <SCORE.INTRA.POLAR.0>
0

>  <SCORE.INTRA.REPUL>
0

>  <SCORE.INTRA.REPUL.0>
0

>  <SCORE.INTRA.SOLV>
2.35926

>  <SCORE.INTRA.SOLV.lig_0>
-71.9159

>  <SCORE.INTRA.VDW>
1.87879

>  <SCORE.INTRA.VDW.0>
-3.53918

>  <SCORE.INTRA.norm>
-0.0204871

>  <SCORE.RESTR>
0

>  <SCORE.RESTR.CAVITY>
0

>  <SCORE.RESTR.norm>
0

>  <SCORE.SYSTEM>
0

>  <SCORE.SYSTEM.CONST>
0

>  <SCORE.SYSTEM.DIHEDRAL>
0

>  <SCORE.SYSTEM.SOLV>
0

>  <SCORE.SYSTEM.norm>
0

>  <SCORE.heavy>
34

>  <SCORE.norm>
-0.318735

>  <RMSD>
7.015

$$$$
ligand
 OpenBabel01301917533D
libRbt.so/2013.1/901 2013/11/27
 34 36  0  0  0  0  0  0  0  0999 V2000
   15.5172   23.2792   32.5675 C   0  0  2  0  0  0  0  0  0  0  0  0
   16.1387   23.8586   33.7191 O   0  0  0  0  0  0  0  0  0  0  0  0
   18.1469   27.5272   34.6736 C   0  0  2  0  0  0  0  0  0  0  0  0
   18.5491   28.9402   34.6792 N   0  0  0  0  0  0  0  0  0  0  0  0
   16.7563   29.2854   36.8331 C   0  0  2  0  0  0  0  0  0  0  0  0
   14.6710   22.0385   33.0419 C   0  0  2  0  0  0  0  0  0  0  0  0
   13.6522   22.4426   34.0241 N   0  0  0  0  0  0  0  0  0  0  0  0
   18.2517   27.0055   33.1950 C   0  0  0  0  0  0  0  0  0  0  0  0
   16.8867   29.4012   38.4031 C   0  0  2  0  0  0  0  0  0  0  0  0
   18.0328   28.7006   38.8548 O   0  0  0  0  0  0  0  0  0  0  0  0
   15.6054   20.9526   33.6557 C   0  0  1  0  0  0  0  0  0  0  0  0
   14.8359   19.8165   34.0910 O   0  0  0  0  0  0  0  0  0  0  0  0
   17.8406   25.4912   33.1933 C   0  0  2  0  0  0  0  0  0  0  0  0
   17.9113   24.9288   31.8145 N   0  0  0  0  0  0  0  0  0  0  0  0
   15.5849   28.7936   39.0500 C   0  0  1  0  0  0  0  0  0  0  0  0
   15.6597   28.8384   40.5242 N   0  0  0  0  0  0  0  0  0  0  0  0
   16.6563   20.5559   32.5925 C   0  0  2  0  0  0  0  0  0  0  0  0
   17.5183   19.5493   33.1326 O   0  0  0  0  0  0  0  0  0  0  0  0
   16.3910   25.3092   33.7364 C   0  0  2  0  0  0  0  0  0  0  0  0
   14.3439   29.5947   38.5438 C   0  0  1  0  0  0  0  0  0  0  0  0
   14.4771   30.9468   38.9696 O   0  0  0  0  0  0  0  0  0  0  0  0
   17.4689   21.8540   32.1674 C   0  0  2  0  0  0  0  0  0  0  0  0
   16.5590   22.8858   31.6217 O   0  0  0  0  0  0  0  0  0  0  0  0
   16.3073   25.8955   35.1719 C   0  0  2  0  0  0  0  0  0  0  0  0
   14.9660   25.7450   35.6324 O   0  0  0  0  0  0  0  0  0  0  0  0
   14.3024   29.5286   36.9833 C   0  0  0  0  0  0  0  0  0  0  0  0
   15.5635   30.0326   36.3884 O   0  0  0  0  0  0  0  0  0  0  0  0
   18.5531   21.5570   31.0919 C   0  0  2  0  0  0  0  0  0  0  0  0
   19.2926   22.7536   30.8246 O   0  0  0  0  0  0  0  0  0  0  0  0
   16.6531   27.4048   35.1990 C   0  0  1  0  0  0  0  0  0  0  0  0
   16.5741   27.8555   36.5794 O   0  0  0  0  0  0  0  0  0  0  0  0
   17.9497   21.0838   29.7878 C   0  0  0  0  0  0  0  0  0  0  0  0
   13.0331   29.0506   39.1138 C   0  0  0  0  0  0  0  0  0  0  0  0
   15.6970   27.4373   41.0102 C   0  0  0  0  0  0  0  0  0  0  0  0
  1  2  1  1  0  0  0
  1  6  1  0  0  0  0
  1 23  1  0  0  0  0
  3  4  1  6  0  0  0
  3  8  1  0  0  0  0
  3 30  1  0  0  0  0
  5  9  1  0  0  0  0
  5 27  1  0  0  0  0
  5 31  1  1  0  0  0
  6  7  1  1  0  0  0
  6 11  1  0  0  0  0
  8 13  1  0  0  0  0
  9 10  1  1  0  0  0
  9 15  1  0  0  0  0
 11 12  1  6  0  0  0
 11 17  1  0  0  0  0
 13 14  1  6  0  0  0
 13 19  1  0  0  0  0
 15 16  1  1  0  0  0
 15 20  1  0  0  0  0
 16 34  1  0  0  0  0
 17 18  1  1  0  0  0
 17 22  1  0  0  0  0
 19  2  1  1  0  0  0
 19 24  1  0  0  0  0
 20 21  1  1  0  0  0
 20 26  1  0  0  0  0
 20 33  1  0  0  0  0
 22 23  1  6  0  0  0
 22 28  1  0  0  0  0
 24 25  1  6  0  0  0
 24 30  1  0  0  0  0
 26 27  1  0  0  0  0
 28 29  1  6  0  0  0
 28 32  1  0  0  0  0
 30 31  1  1  0  0  0
M  END
>  <CHROM.1>
-149.17014311,-92.73913514,-114.61483507,-176.45488334,69.50640502,-169.67609674
16.35961038,25.58623976,35.03779024,1.37135875,-0.81095781,-2.59142534

>  <Name>
ligand

>  <RI>
0

>  <Rbt.Current_Directory>
/home/itssahil/PROJECTS/Mol_Feturizer/New_Systems/rnas/4p3s

>  <Rbt.Executable>
rbdock ($Id: //depot/dev/client3/rdock/2013.1/src/exe/rbdock.cxx#4 $)

>  <Rbt.Library>
libRbt.so (2013.1, Build901 2013/11/27)

>  <Rbt.Parameter_File>
/export/apps/rDock/src/rDock_2013.1_src/data/scripts/dock_solv.prm

>  <Rbt.Receptor>
prm/pocket_docking_7.prm

>  <SCORE>
-11.6916

>  <SCORE.INTER>
-11.6298

>  <SCORE.INTER.CONST>
1

>  <SCORE.INTER.POLAR>
0

>  <SCORE.INTER.ROT>
6

>  <SCORE.INTER.SOLV>
14.8095

>  <SCORE.INTER.VDW>
-20.2897

>  <SCORE.INTER.norm>
-0.342053

>  <SCORE.INTRA>
-0.0618051

>  <SCORE.INTRA.DIHEDRAL>
-5.67375

>  <SCORE.INTRA.DIHEDRAL.0>
15.8194

>  <SCORE.INTRA.POLAR>
0

>  <SCORE.INTRA.POLAR.0>
0

>  <SCORE.INTRA.REPUL>
0

>  <SCORE.INTRA.REPUL.0>
0

>  <SCORE.INTRA.SOLV>
3.56423

>  <SCORE.INTRA.SOLV.lig_0>
-71.9159

>  <SCORE.INTRA.VDW>
0.992952

>  <SCORE.INTRA.VDW.0>
-3.53918

>  <SCORE.INTRA.norm>
-0.0018178

>  <SCORE.RESTR>
0

>  <SCORE.RESTR.CAVITY>
0

>  <SCORE.RESTR.norm>
0

>  <SCORE.SYSTEM>
0

>  <SCORE.SYSTEM.CONST>
0

>  <SCORE.SYSTEM.DIHEDRAL>
0

>  <SCORE.SYSTEM.SOLV>
0

>  <SCORE.SYSTEM.norm>
0

>  <SCORE.heavy>
34

>  <SCORE.norm>
-0.343871

>  <RMSD>
7.030

$$$$
ligand
 OpenBabel01301917533D
libRbt.so/2013.1/901 2013/11/27
 34 36  0  0  0  0  0  0  0  0999 V2000
   23.6697   30.4442   39.4866 C   0  0  2  0  0  0  0  0  0  0  0  0
   24.6664   30.9321   38.5829 O   0  0  0  0  0  0  0  0  0  0  0  0
   22.3748   34.1560   36.9223 C   0  0  2  0  0  0  0  0  0  0  0  0
   22.0095   35.4314   36.2910 N   0  0  0  0  0  0  0  0  0  0  0  0
   22.9072   32.3613   33.5575 C   0  0  2  0  0  0  0  0  0  0  0  0
   24.3673   29.4558   40.4951 C   0  0  2  0  0  0  0  0  0  0  0  0
   25.4420   30.1347   41.2368 N   0  0  0  0  0  0  0  0  0  0  0  0
   23.2932   34.4783   38.1559 C   0  0  0  0  0  0  0  0  0  0  0  0
   23.2454   33.6069   32.6467 C   0  0  2  0  0  0  0  0  0  0  0  0
   24.1784   34.4529   33.2965 O   0  0  0  0  0  0  0  0  0  0  0  0
   24.9394   28.2232   39.7319 C   0  0  1  0  0  0  0  0  0  0  0  0
   25.5783   27.3170   40.6501 O   0  0  0  0  0  0  0  0  0  0  0  0
   23.6669   33.1168   38.8408 C   0  0  2  0  0  0  0  0  0  0  0  0
   24.5469   33.3467   40.0219 N   0  0  0  0  0  0  0  0  0  0  0  0
   21.9058   34.3865   32.3641 C   0  0  1  0  0  0  0  0  0  0  0  0
   22.1592   35.5881   31.5439 N   0  0  0  0  0  0  0  0  0  0  0  0
   23.7796   27.5398   38.9704 C   0  0  2  0  0  0  0  0  0  0  0  0
   24.2820   26.3964   38.2715 O   0  0  0  0  0  0  0  0  0  0  0  0
   24.4043   32.1764   37.8402 C   0  0  2  0  0  0  0  0  0  0  0  0
   20.9060   33.4327   31.6368 C   0  0  1  0  0  0  0  0  0  0  0  0
   21.4793   33.0438   30.3929 O   0  0  0  0  0  0  0  0  0  0  0  0
   23.1302   28.5943   37.9743 C   0  0  2  0  0  0  0  0  0  0  0  0
   22.6267   29.7726   38.7148 O   0  0  0  0  0  0  0  0  0  0  0  0
   23.4957   31.9340   36.6045 C   0  0  2  0  0  0  0  0  0  0  0  0
   24.2050   31.0980   35.6925 O   0  0  0  0  0  0  0  0  0  0  0  0
   20.6680   32.1737   32.5311 C   0  0  0  0  0  0  0  0  0  0  0  0
   21.9444   31.4918   32.8533 O   0  0  0  0  0  0  0  0  0  0  0  0
   21.9447   27.9996   37.1611 C   0  0  2  0  0  0  0  0  0  0  0  0
   21.4362   28.9981   36.2697 O   0  0  0  0  0  0  0  0  0  0  0  0
   23.1545   33.2552   35.8720 C   0  0  1  0  0  0  0  0  0  0  0  0
   22.2844   32.9323   34.7525 O   0  0  0  0  0  0  0  0  0  0  0  0
   20.8077   27.5520   38.0530 C   0  0  0  0  0  0  0  0  0  0  0  0
   19.5677   34.1126   31.3441 C   0  0  0  0  0  0  0  0  0  0  0  0
   21.3931   36.7068   32.1459 C   0  0  0  0  0  0  0  0  0  0  0  0
  1  2  1  6  0  0  0
  1  6  1  0  0  0  0
  1 23  1  0  0  0  0
  3  4  1  6  0  0  0
  3  8  1  0  0  0  0
  3 30  1  0  0  0  0
  5  9  1  0  0  0  0
  5 27  1  0  0  0  0
  5 31  1  1  0  0  0
  6  7  1  6  0  0  0
  6 11  1  0  0  0  0
  8 13  1  0  0  0  0
  9 10  1  1  0  0  0
  9 15  1  0  0  0  0
 11 12  1  1  0  0  0
 11 17  1  0  0  0  0
 13 14  1  1  0  0  0
 13 19  1  0  0  0  0
 15 16  1  6  0  0  0
 15 20  1  0  0  0  0
 16 34  1  0  0  0  0
 17 18  1  6  0  0  0
 17 22  1  0  0  0  0
 19  2  1  1  0  0  0
 19 24  1  0  0  0  0
 20 21  1  6  0  0  0
 20 26  1  0  0  0  0
 20 33  1  0  0  0  0
 22 23  1  1  0  0  0
 22 28  1  0  0  0  0
 24 25  1  6  0  0  0
 24 30  1  0  0  0  0
 26 27  1  0  0  0  0
 28 29  1  6  0  0  0
 28 32  1  0  0  0  0
 30 31  1  6  0  0  0
M  END
>  <CHROM.1>
-159.99563294,38.53381371,-135.21482575,-178.70465711,167.00377062,-91.57807392
22.94942942,31.63621979,36.17255483,-0.93392848,-1.11959534,-0.33702028

>  <Name>
ligand

>  <RI>
0

>  <Rbt.Current_Directory>
/home/itssahil/PROJECTS/Mol_Feturizer/New_Systems/rnas/4p3s

>  <Rbt.Executable>
rbdock ($Id: //depot/dev/client3/rdock/2013.1/src/exe/rbdock.cxx#4 $)

>  <Rbt.Library>
libRbt.so (2013.1, Build901 2013/11/27)

>  <Rbt.Parameter_File>
/export/apps/rDock/src/rDock_2013.1_src/data/scripts/dock_solv.prm

>  <Rbt.Receptor>
prm/blind_docking_80.prm

>  <SCORE>
4.20386

>  <SCORE.INTER>
-0.568641

>  <SCORE.INTER.CONST>
1

>  <SCORE.INTER.POLAR>
0

>  <SCORE.INTER.ROT>
6

>  <SCORE.INTER.SOLV>
18.8727

>  <SCORE.INTER.VDW>
-14.27

>  <SCORE.INTER.norm>
-0.0167247

>  <SCORE.INTRA>
-0.409974

>  <SCORE.INTRA.DIHEDRAL>
-6.17661

>  <SCORE.INTRA.DIHEDRAL.0>
15.8194

>  <SCORE.INTRA.POLAR>
0

>  <SCORE.INTRA.POLAR.0>
0

>  <SCORE.INTRA.REPUL>
0

>  <SCORE.INTRA.REPUL.0>
0

>  <SCORE.INTRA.SOLV>
1.45794

>  <SCORE.INTRA.SOLV.lig_0>
-71.9159

>  <SCORE.INTRA.VDW>
1.94936

>  <SCORE.INTRA.VDW.0>
-3.53918

>  <SCORE.INTRA.norm>
-0.0120581

>  <SCORE.RESTR>
5.18247

>  <SCORE.RESTR.CAVITY>
5.18247

>  <SCORE.RESTR.norm>
0.152426

>  <SCORE.SYSTEM>
0

>  <SCORE.SYSTEM.CONST>
0

>  <SCORE.SYSTEM.DIHEDRAL>
0

>  <SCORE.SYSTEM.SOLV>
0

>  <SCORE.SYSTEM.norm>
0

>  <SCORE.heavy>
34

>  <SCORE.norm>
0.123643

>  <RMSD>
7.038

$$$$
ligand
 OpenBabel01301917533D
libRbt.so/2013.1/901 2013/11/27
 34 36  0  0  0  0  0  0  0  0999 V2000
   18.3532   32.6522   34.1084 C   0  0  2  0  0  0  0  0  0  0  0  0
   19.4546   33.4539   34.5470 O   0  0  0  0  0  0  0  0  0  0  0  0
   22.5538   32.4555   37.3399 C   0  0  2  0  0  0  0  0  0  0  0  0
   23.2917   32.2435   38.5925 N   0  0  0  0  0  0  0  0  0  0  0  0
   20.8709   28.9898   37.4175 C   0  0  2  0  0  0  0  0  0  0  0  0
   18.0904   32.9734   32.5890 C   0  0  2  0  0  0  0  0  0  0  0  0
   19.2851   32.6888   31.7781 N   0  0  0  0  0  0  0  0  0  0  0  0
   22.0252   33.9353   37.3403 C   0  0  0  0  0  0  0  0  0  0  0  0
   20.7522   28.8244   38.9840 C   0  0  2  0  0  0  0  0  0  0  0  0
   20.2431   30.0115   39.5671 O   0  0  0  0  0  0  0  0  0  0  0  0
   17.6705   34.4646   32.4189 C   0  0  1  0  0  0  0  0  0  0  0  0
   17.4295   34.7627   31.0313 O   0  0  0  0  0  0  0  0  0  0  0  0
   21.2539   34.1666   35.9935 C   0  0  2  0  0  0  0  0  0  0  0  0
   20.7165   35.5556   35.9273 N   0  0  0  0  0  0  0  0  0  0  0  0
   22.1863   28.5073   39.5542 C   0  0  1  0  0  0  0  0  0  0  0  0
   22.1507   28.3763   41.0247 N   0  0  0  0  0  0  0  0  0  0  0  0
   16.4136   34.7191   33.2835 C   0  0  2  0  0  0  0  0  0  0  0  0
   16.0037   36.0818   33.1319 O   0  0  0  0  0  0  0  0  0  0  0  0
   20.0701   33.1626   35.8525 C   0  0  2  0  0  0  0  0  0  0  0  0
   22.7122   27.1889   38.9033 C   0  0  1  0  0  0  0  0  0  0  0  0
   21.8330   26.1281   39.2625 O   0  0  0  0  0  0  0  0  0  0  0  0
   16.7564   34.3773   34.7973 C   0  0  2  0  0  0  0  0  0  0  0  0
   17.1877   32.9679   34.9310 O   0  0  0  0  0  0  0  0  0  0  0  0
   20.6208   31.7123   35.9237 C   0  0  2  0  0  0  0  0  0  0  0  0
   19.5163   30.8157   35.8241 O   0  0  0  0  0  0  0  0  0  0  0  0
   22.7300   27.3644   37.3508 C   0  0  0  0  0  0  0  0  0  0  0  0
   21.3910   27.7373   36.8348 O   0  0  0  0  0  0  0  0  0  0  0  0
   15.5469   34.5985   35.7504 C   0  0  2  0  0  0  0  0  0  0  0  0
   15.9557   34.3428   37.0986 O   0  0  0  0  0  0  0  0  0  0  0  0
   21.3399   31.4341   37.2668 C   0  0  1  0  0  0  0  0  0  0  0  0
   21.8410   30.0695   37.2298 O   0  0  0  0  0  0  0  0  0  0  0  0
   14.3925   33.6737   35.4328 C   0  0  0  0  0  0  0  0  0  0  0  0
   24.1140   26.8221   39.3927 C   0  0  0  0  0  0  0  0  0  0  0  0
   22.6257   29.6600   41.5968 C   0  0  0  0  0  0  0  0  0  0  0  0
  1  2  1  1  0  0  0
  1  6  1  0  0  0  0
  1 23  1  0  0  0  0
  3  4  1  1  0  0  0
  3  8  1  0  0  0  0
  3 30  1  0  0  0  0
  5  9  1  0  0  0  0
  5 27  1  0  0  0  0
  5 31  1  1  0  0  0
  6  7  1  6  0  0  0
  6 11  1  0  0  0  0
  8 13  1  0  0  0  0
  9 10  1  1  0  0  0
  9 15  1  0  0  0  0
 11 12  1  6  0  0  0
 11 17  1  0  0  0  0
 13 14  1  1  0  0  0
 13 19  1  0  0  0  0
 15 16  1  1  0  0  0
 15 20  1  0  0  0  0
 16 34  1  0  0  0  0
 17 18  1  1  0  0  0
 17 22  1  0  0  0  0
 19  2  1  6  0  0  0
 19 24  1  0  0  0  0
 20 21  1  1  0  0  0
 20 26  1  0  0  0  0
 20 33  1  0  0  0  0
 22 23  1  6  0  0  0
 22 28  1  0  0  0  0
 24 25  1  1  0  0  0
 24 30  1  0  0  0  0
 26 27  1  0  0  0  0
 28 29  1  1  0  0  0
 28 32  1  0  0  0  0
 30 31  1  6  0  0  0
M  END
>  <CHROM.1>
-168.44956960,177.87423630,-99.68984379,-176.77373199,168.64905765,-85.33005872
19.89311786,31.66099039,36.41719752,2.72513763,-0.93420653,0.33994274

>  <Name>
ligand

>  <RI>
0

>  <Rbt.Current_Directory>
/home/itssahil/PROJECTS/Mol_Feturizer/New_Systems/rnas/4p3s

>  <Rbt.Executable>
rbdock ($Id: //depot/dev/client3/rdock/2013.1/src/exe/rbdock.cxx#4 $)

>  <Rbt.Library>
libRbt.so (2013.1, Build901 2013/11/27)

>  <Rbt.Parameter_File>
/export/apps/rDock/src/rDock_2013.1_src/data/scripts/dock_solv.prm

>  <Rbt.Receptor>
prm/pocket_docking_8.prm

>  <SCORE>
-5.41033

>  <SCORE.INTER>
-0.981265

>  <SCORE.INTER.CONST>
1

>  <SCORE.INTER.POLAR>
0

>  <SCORE.INTER.ROT>
6

>  <SCORE.INTER.SOLV>
4.79543

>  <SCORE.INTER.VDW>
-9.85265

>  <SCORE.INTER.norm>
-0.0288607

>  <SCORE.INTRA>
-4.42906

>  <SCORE.INTRA.DIHEDRAL>
-10.7906

>  <SCORE.INTRA.DIHEDRAL.0>
15.8194

>  <SCORE.INTRA.POLAR>
0

>  <SCORE.INTRA.POLAR.0>
0

>  <SCORE.INTRA.REPUL>
0

>  <SCORE.INTRA.REPUL.0>
0

>  <SCORE.INTRA.SOLV>
-0.803794

>  <SCORE.INTRA.SOLV.lig_0>
-71.9159

>  <SCORE.INTRA.VDW>
1.36812

>  <SCORE.INTRA.VDW.0>
-3.53918

>  <SCORE.INTRA.norm>
-0.130267

>  <SCORE.RESTR>
0

>  <SCORE.RESTR.CAVITY>
0

>  <SCORE.RESTR.norm>
0

>  <SCORE.SYSTEM>
0

>  <SCORE.SYSTEM.CONST>
0

>  <SCORE.SYSTEM.DIHEDRAL>
0

>  <SCORE.SYSTEM.SOLV>
0

>  <SCORE.SYSTEM.norm>
0

>  <SCORE.heavy>
34

>  <SCORE.norm>
-0.159127

>  <RMSD>
7.044

$$$$
ligand
 OpenBabel01301917533D
libRbt.so/2013.1/901 2013/11/27
 34 36  0  0  0  0  0  0  0  0999 V2000
   22.2342   31.9830   34.5904 C   0  0  2  0  0  0  0  0  0  0  0  0
   21.3451   32.5439   35.5615 O   0  0  0  0  0  0  0  0  0  0  0  0
   20.2508   30.9697   39.3990 C   0  0  2  0  0  0  0  0  0  0  0  0
   19.5778   30.2000   40.4541 N   0  0  0  0  0  0  0  0  0  0  0  0
   22.7702   28.1773   38.5518 C   0  0  2  0  0  0  0  0  0  0  0  0
   22.9587   33.1691   33.8495 C   0  0  2  0  0  0  0  0  0  0  0  0
   23.7048   34.0059   34.8029 N   0  0  0  0  0  0  0  0  0  0  0  0
   19.1456   31.7366   38.5870 C   0  0  0  0  0  0  0  0  0  0  0  0
   21.8396   26.9298   38.8222 C   0  0  2  0  0  0  0  0  0  0  0  0
   20.5737   27.1189   38.2137 O   0  0  0  0  0  0  0  0  0  0  0  0
   21.9195   34.0354   33.0758 C   0  0  1  0  0  0  0  0  0  0  0  0
   22.5775   35.1211   32.3972 O   0  0  0  0  0  0  0  0  0  0  0  0
   19.8670   32.5734   37.4727 C   0  0  2  0  0  0  0  0  0  0  0  0
   18.8738   33.3264   36.6548 N   0  0  0  0  0  0  0  0  0  0  0  0
   21.6774   26.7670   40.3809 C   0  0  1  0  0  0  0  0  0  0  0  0
   20.7851   25.6349   40.7017 N   0  0  0  0  0  0  0  0  0  0  0  0
   21.1617   33.1199   32.0860 C   0  0  2  0  0  0  0  0  0  0  0  0
   20.2094   33.8994   31.3556 O   0  0  0  0  0  0  0  0  0  0  0  0
   20.6942   31.6469   36.5310 C   0  0  2  0  0  0  0  0  0  0  0  0
   23.0856   26.5471   41.0186 C   0  0  1  0  0  0  0  0  0  0  0  0
   23.6367   25.3459   40.4887 O   0  0  0  0  0  0  0  0  0  0  0  0
   20.4572   31.9540   32.9047 C   0  0  2  0  0  0  0  0  0  0  0  0
   21.4569   31.1670   33.6605 O   0  0  0  0  0  0  0  0  0  0  0  0
   21.7298   30.8559   37.3756 C   0  0  2  0  0  0  0  0  0  0  0  0
   22.4503   29.9946   36.4965 O   0  0  0  0  0  0  0  0  0  0  0  0
   24.0004   27.7600   40.6531 C   0  0  0  0  0  0  0  0  0  0  0  0
   24.0839   27.9495   39.1850 O   0  0  0  0  0  0  0  0  0  0  0  0
   19.6686   30.9720   31.9912 C   0  0  2  0  0  0  0  0  0  0  0  0
   19.1589   29.8952   32.7854 O   0  0  0  0  0  0  0  0  0  0  0  0
   21.0451   29.9748   38.4495 C   0  0  1  0  0  0  0  0  0  0  0  0
   22.0889   29.2976   39.2022 O   0  0  0  0  0  0  0  0  0  0  0  0
   20.5392   30.3765   30.9067 C   0  0  0  0  0  0  0  0  0  0  0  0
   23.0149   26.3997   42.5391 C   0  0  0  0  0  0  0  0  0  0  0  0
   19.4801   26.2024   41.1209 C   0  0  0  0  0  0  0  0  0  0  0  0
  1  2  1  1  0  0  0
  1  6  1  0  0  0  0
  1 23  1  0  0  0  0
  3  4  1  1  0  0  0
  3  8  1  0  0  0  0
  3 30  1  0  0  0  0
  5  9  1  0  0  0  0
  5 27  1  0  0  0  0
  5 31  1  1  0  0  0
  6  7  1  1  0  0  0
  6 11  1  0  0  0  0
  8 13  1  0  0  0  0
  9 10  1  6  0  0  0
  9 15  1  0  0  0  0
 11 12  1  6  0  0  0
 11 17  1  0  0  0  0
 13 14  1  6  0  0  0
 13 19  1  0  0  0  0
 15 16  1  6  0  0  0
 15 20  1  0  0  0  0
 16 34  1  0  0  0  0
 17 18  1  1  0  0  0
 17 22  1  0  0  0  0
 19  2  1  6  0  0  0
 19 24  1  0  0  0  0
 20 21  1  6  0  0  0
 20 26  1  0  0  0  0
 20 33  1  0  0  0  0
 22 23  1  6  0  0  0
 22 28  1  0  0  0  0
 24 25  1  6  0  0  0
 24 30  1  0  0  0  0
 26 27  1  0  0  0  0
 28 29  1  1  0  0  0
 28 32  1  0  0  0  0
 30 31  1  1  0  0  0
M  END
>  <CHROM.1>
-170.91750362,177.15960728,-104.54175025,175.25993414,169.65576332,-84.41242136
21.42145140,30.20375374,36.80673472,-2.09957820,-1.37738309,1.70897155

>  <Name>
ligand

>  <RI>
0

>  <Rbt.Current_Directory>
/home/itssahil/PROJECTS/Mol_Feturizer/New_Systems/rnas/4p3s

>  <Rbt.Executable>
rbdock ($Id: //depot/dev/client3/rdock/2013.1/src/exe/rbdock.cxx#4 $)

>  <Rbt.Library>
libRbt.so (2013.1, Build901 2013/11/27)

>  <Rbt.Parameter_File>
/export/apps/rDock/src/rDock_2013.1_src/data/scripts/dock_solv.prm

>  <Rbt.Receptor>
prm/pocket_docking_7.prm

>  <SCORE>
-3.22907

>  <SCORE.INTER>
1.26914

>  <SCORE.INTER.CONST>
1

>  <SCORE.INTER.POLAR>
0

>  <SCORE.INTER.ROT>
6

>  <SCORE.INTER.SOLV>
11.6142

>  <SCORE.INTER.VDW>
-10.6253

>  <SCORE.INTER.norm>
0.0373277

>  <SCORE.INTRA>
-4.49821

>  <SCORE.INTRA.DIHEDRAL>
-11.1248

>  <SCORE.INTRA.DIHEDRAL.0>
15.8194

>  <SCORE.INTRA.POLAR>
0

>  <SCORE.INTRA.POLAR.0>
0

>  <SCORE.INTRA.REPUL>
0

>  <SCORE.INTRA.REPUL.0>
0

>  <SCORE.INTRA.SOLV>
-0.864893

>  <SCORE.INTRA.SOLV.lig_0>
-71.9159

>  <SCORE.INTRA.VDW>
1.49665

>  <SCORE.INTRA.VDW.0>
-3.53918

>  <SCORE.INTRA.norm>
-0.1323

>  <SCORE.RESTR>
0

>  <SCORE.RESTR.CAVITY>
0

>  <SCORE.RESTR.norm>
0

>  <SCORE.SYSTEM>
0

>  <SCORE.SYSTEM.CONST>
0

>  <SCORE.SYSTEM.DIHEDRAL>
0

>  <SCORE.SYSTEM.SOLV>
0

>  <SCORE.SYSTEM.norm>
0

>  <SCORE.heavy>
34

>  <SCORE.norm>
-0.0949726

>  <RMSD>
7.060

$$$$
ligand
 OpenBabel01301917533D
libRbt.so/2013.1/901 2013/11/27
 34 36  0  0  0  0  0  0  0  0999 V2000
   20.7235   32.0689   38.5993 C   0  0  2  0  0  0  0  0  0  0  0  0
   20.6998   30.7794   37.9791 O   0  0  0  0  0  0  0  0  0  0  0  0
   22.8676   27.2244   39.0111 C   0  0  2  0  0  0  0  0  0  0  0  0
   23.9363   26.2229   39.1274 N   0  0  0  0  0  0  0  0  0  0  0  0
   24.7961   28.0039   41.7083 C   0  0  2  0  0  0  0  0  0  0  0  0
   19.4414   32.8572   38.1353 C   0  0  2  0  0  0  0  0  0  0  0  0
   18.2160   32.1326   38.5085 N   0  0  0  0  0  0  0  0  0  0  0  0
   22.6661   27.5342   37.4838 C   0  0  0  0  0  0  0  0  0  0  0  0
   24.6080   27.7111   43.2491 C   0  0  2  0  0  0  0  0  0  0  0  0
   23.8244   26.5451   43.4364 O   0  0  0  0  0  0  0  0  0  0  0  0
   19.4792   33.0871   36.5943 C   0  0  1  0  0  0  0  0  0  0  0  0
   18.3088   33.8073   36.1657 O   0  0  0  0  0  0  0  0  0  0  0  0
   21.5115   28.5894   37.3596 C   0  0  2  0  0  0  0  0  0  0  0  0
   21.2683   28.9369   35.9304 N   0  0  0  0  0  0  0  0  0  0  0  0
   23.8982   28.9567   43.9024 C   0  0  1  0  0  0  0  0  0  0  0  0
   23.6592   28.7310   45.3422 N   0  0  0  0  0  0  0  0  0  0  0  0
   20.7781   33.8515   36.2469 C   0  0  2  0  0  0  0  0  0  0  0  0
   20.8267   34.0839   34.8357 O   0  0  0  0  0  0  0  0  0  0  0  0
   21.8635   29.8917   38.1403 C   0  0  2  0  0  0  0  0  0  0  0  0
   24.7915   30.2199   43.6910 C   0  0  1  0  0  0  0  0  0  0  0  0
   26.0359   30.0060   44.3491 O   0  0  0  0  0  0  0  0  0  0  0  0
   22.0228   32.9958   36.7412 C   0  0  2  0  0  0  0  0  0  0  0  0
   21.9484   32.7578   38.1999 O   0  0  0  0  0  0  0  0  0  0  0  0
   22.1217   29.5385   39.6303 C   0  0  2  0  0  0  0  0  0  0  0  0
   22.4718   30.7399   40.3142 O   0  0  0  0  0  0  0  0  0  0  0  0
   25.0260   30.4218   42.1594 C   0  0  0  0  0  0  0  0  0  0  0  0
   25.6244   29.2143   41.5415 O   0  0  0  0  0  0  0  0  0  0  0  0
   23.3834   33.6873   36.4394 C   0  0  2  0  0  0  0  0  0  0  0  0
   24.4500   32.8535   36.9055 O   0  0  0  0  0  0  0  0  0  0  0  0
   23.2948   28.5403   39.7911 C   0  0  1  0  0  0  0  0  0  0  0  0
   23.4429   28.2510   41.2085 O   0  0  0  0  0  0  0  0  0  0  0  0
   23.5081   35.0282   37.1287 C   0  0  0  0  0  0  0  0  0  0  0  0
   24.1590   31.4805   44.2823 C   0  0  0  0  0  0  0  0  0  0  0  0
   22.2546   28.2782   45.4938 C   0  0  0  0  0  0  0  0  0  0  0  0
  1  2  1  6  0  0  0
  1  6  1  0  0  0  0
  1 23  1  0  0  0  0
  3  4  1  6  0  0  0
  3  8  1  0  0  0  0
  3 30  1  0  0  0  0
  5  9  1  0  0  0  0
  5 27  1  0  0  0  0
  5 31  1  1  0  0  0
  6  7  1  6  0  0  0
  6 11  1  0  0  0  0
  8 13  1  0  0  0  0
  9 10  1  6  0  0  0
  9 15  1  0  0  0  0
 11 12  1  1  0  0  0
 11 17  1  0  0  0  0
 13 14  1  6  0  0  0
 13 19  1  0  0  0  0
 15 16  1  1  0  0  0
 15 20  1  0  0  0  0
 16 34  1  0  0  0  0
 17 18  1  6  0  0  0
 17 22  1  0  0  0  0
 19  2  1  1  0  0  0
 19 24  1  0  0  0  0
 20 21  1  1  0  0  0
 20 26  1  0  0  0  0
 20 33  1  0  0  0  0
 22 23  1  1  0  0  0
 22 28  1  0  0  0  0
 24 25  1  1  0  0  0
 24 30  1  0  0  0  0
 26 27  1  0  0  0  0
 28 29  1  1  0  0  0
 28 32  1  0  0  0  0
 30 31  1  1  0  0  0
M  END
>  <CHROM.1>
173.77767142,179.71059836,-97.79325972,-179.64502371,98.21958841,-179.36479913
22.59950752,30.46753592,39.70769392,-2.69224167,1.11772499,-3.05849698

>  <Name>
ligand

>  <RI>
0

>  <Rbt.Current_Directory>
/home/itssahil/PROJECTS/Mol_Feturizer/New_Systems/rnas/4p3s

>  <Rbt.Executable>
rbdock ($Id: //depot/dev/client3/rdock/2013.1/src/exe/rbdock.cxx#4 $)

>  <Rbt.Library>
libRbt.so (2013.1, Build901 2013/11/27)

>  <Rbt.Parameter_File>
/export/apps/rDock/src/rDock_2013.1_src/data/scripts/dock_solv.prm

>  <Rbt.Receptor>
prm/pocket_docking_8.prm

>  <SCORE>
-7.68011

>  <SCORE.INTER>
-2.78967

>  <SCORE.INTER.CONST>
1

>  <SCORE.INTER.POLAR>
0

>  <SCORE.INTER.ROT>
6

>  <SCORE.INTER.SOLV>
10.4424

>  <SCORE.INTER.VDW>
-12.9406

>  <SCORE.INTER.norm>
-0.0820492

>  <SCORE.INTRA>
-4.89044

>  <SCORE.INTRA.DIHEDRAL>
-9.66583

>  <SCORE.INTRA.DIHEDRAL.0>
15.8194

>  <SCORE.INTRA.POLAR>
0

>  <SCORE.INTRA.POLAR.0>
0

>  <SCORE.INTRA.REPUL>
0

>  <SCORE.INTRA.REPUL.0>
0

>  <SCORE.INTRA.SOLV>
-1.46129

>  <SCORE.INTRA.SOLV.lig_0>
-71.9159

>  <SCORE.INTRA.VDW>
0.67312

>  <SCORE.INTRA.VDW.0>
-3.53918

>  <SCORE.INTRA.norm>
-0.143836

>  <SCORE.RESTR>
0

>  <SCORE.RESTR.CAVITY>
0

>  <SCORE.RESTR.norm>
0

>  <SCORE.SYSTEM>
0

>  <SCORE.SYSTEM.CONST>
0

>  <SCORE.SYSTEM.DIHEDRAL>
0

>  <SCORE.SYSTEM.SOLV>
0

>  <SCORE.SYSTEM.norm>
0

>  <SCORE.heavy>
34

>  <SCORE.norm>
-0.225886

>  <RMSD>
7.080

$$$$
ligand
 OpenBabel01301917533D
libRbt.so/2013.1/901 2013/11/27
 34 36  0  0  0  0  0  0  0  0999 V2000
   15.3671   23.2009   32.5141 C   0  0  2  0  0  0  0  0  0  0  0  0
   16.0591   23.7490   33.6405 O   0  0  0  0  0  0  0  0  0  0  0  0
   18.1365   27.3722   34.6198 C   0  0  2  0  0  0  0  0  0  0  0  0
   18.5650   28.7775   34.6355 N   0  0  0  0  0  0  0  0  0  0  0  0
   16.8351   29.1295   36.8006 C   0  0  2  0  0  0  0  0  0  0  0  0
   14.5566   21.9426   33.0044 C   0  0  2  0  0  0  0  0  0  0  0  0
   13.6013   22.3126   34.0610 N   0  0  0  0  0  0  0  0  0  0  0  0
   18.2296   26.8601   33.1372 C   0  0  0  0  0  0  0  0  0  0  0  0
   16.9505   29.2233   38.3733 C   0  0  2  0  0  0  0  0  0  0  0  0
   18.0473   28.4525   38.8332 O   0  0  0  0  0  0  0  0  0  0  0  0
   15.5315   20.8436   33.5249 C   0  0  1  0  0  0  0  0  0  0  0  0
   14.7946   19.6915   33.9743 O   0  0  0  0  0  0  0  0  0  0  0  0
   17.7903   25.3537   33.1245 C   0  0  2  0  0  0  0  0  0  0  0  0
   17.8486   24.8006   31.7414 N   0  0  0  0  0  0  0  0  0  0  0  0
   15.6067   28.6873   38.9970 C   0  0  1  0  0  0  0  0  0  0  0  0
   15.6637   28.7144   40.4725 N   0  0  0  0  0  0  0  0  0  0  0  0
   16.5136   20.4836   32.3856 C   0  0  2  0  0  0  0  0  0  0  0  0
   17.4113   19.4657   32.8395 O   0  0  0  0  0  0  0  0  0  0  0  0
   16.3383   25.1945   33.6685 C   0  0  2  0  0  0  0  0  0  0  0  0
   14.4217   29.5645   38.4824 C   0  0  1  0  0  0  0  0  0  0  0  0
   14.6281   30.9026   38.9231 O   0  0  0  0  0  0  0  0  0  0  0  0
   17.2935   21.7976   31.9483 C   0  0  2  0  0  0  0  0  0  0  0  0
   16.3476   22.8405   31.4926 O   0  0  0  0  0  0  0  0  0  0  0  0
   16.2676   25.7713   35.1086 C   0  0  2  0  0  0  0  0  0  0  0  0
   14.9244   25.6422   35.5700 O   0  0  0  0  0  0  0  0  0  0  0  0
   14.3979   29.5150   36.9209 C   0  0  0  0  0  0  0  0  0  0  0  0
   15.6943   29.9495   36.3476 O   0  0  0  0  0  0  0  0  0  0  0  0
   18.3078   21.5377   30.7977 C   0  0  2  0  0  0  0  0  0  0  0  0
   19.0266   22.7447   30.5209 O   0  0  0  0  0  0  0  0  0  0  0  0
   16.6415   27.2737   35.1467 C   0  0  1  0  0  0  0  0  0  0  0  0
   16.5729   27.7152   36.5305 O   0  0  0  0  0  0  0  0  0  0  0  0
   17.6237   21.1023   29.5205 C   0  0  0  0  0  0  0  0  0  0  0  0
   13.0737   29.0932   39.0298 C   0  0  0  0  0  0  0  0  0  0  0  0
   15.6647   27.3076   40.9431 C   0  0  0  0  0  0  0  0  0  0  0  0
  1  2  1  1  0  0  0
  1  6  1  0  0  0  0
  1 23  1  0  0  0  0
  3  4  1  6  0  0  0
  3  8  1  0  0  0  0
  3 30  1  0  0  0  0
  5  9  1  0  0  0  0
  5 27  1  0  0  0  0
  5 31  1  1  0  0  0
  6  7  1  1  0  0  0
  6 11  1  0  0  0  0
  8 13  1  0  0  0  0
  9 10  1  1  0  0  0
  9 15  1  0  0  0  0
 11 12  1  6  0  0  0
 11 17  1  0  0  0  0
 13 14  1  6  0  0  0
 13 19  1  0  0  0  0
 15 16  1  1  0  0  0
 15 20  1  0  0  0  0
 16 34  1  0  0  0  0
 17 18  1  1  0  0  0
 17 22  1  0  0  0  0
 19  2  1  1  0  0  0
 19 24  1  0  0  0  0
 20 21  1  1  0  0  0
 20 26  1  0  0  0  0
 20 33  1  0  0  0  0
 22 23  1  6  0  0  0
 22 28  1  0  0  0  0
 24 25  1  6  0  0  0
 24 30  1  0  0  0  0
 26 27  1  0  0  0  0
 28 29  1  6  0  0  0
 28 32  1  0  0  0  0
 30 31  1  1  0  0  0
M  END
>  <CHROM.1>
-150.73333398,-95.74175756,-112.48227004,-176.36566448,67.11335062,-169.80173477
16.31183284,25.48886008,34.94146277,1.40059667,-0.82886245,-2.55978452

>  <Name>
ligand

>  <RI>
0

>  <Rbt.Current_Directory>
/home/itssahil/PROJECTS/Mol_Feturizer/New_Systems/rnas/4p3s

>  <Rbt.Executable>
rbdock ($Id: //depot/dev/client3/rdock/2013.1/src/exe/rbdock.cxx#4 $)

>  <Rbt.Library>
libRbt.so (2013.1, Build901 2013/11/27)

>  <Rbt.Parameter_File>
/export/apps/rDock/src/rDock_2013.1_src/data/scripts/dock_solv.prm

>  <Rbt.Receptor>
prm/pocket_docking_7.prm

>  <SCORE>
-11.7068

>  <SCORE.INTER>
-11.7776

>  <SCORE.INTER.CONST>
1

>  <SCORE.INTER.POLAR>
0

>  <SCORE.INTER.ROT>
6

>  <SCORE.INTER.SOLV>
15.0507

>  <SCORE.INTER.VDW>
-20.4686

>  <SCORE.INTER.norm>
-0.3464

>  <SCORE.INTRA>
0.0708088

>  <SCORE.INTRA.DIHEDRAL>
-5.63539

>  <SCORE.INTRA.DIHEDRAL.0>
15.8194

>  <SCORE.INTRA.POLAR>
0

>  <SCORE.INTRA.POLAR.0>
0

>  <SCORE.INTRA.REPUL>
0

>  <SCORE.INTRA.REPUL.0>
0

>  <SCORE.INTRA.SOLV>
3.73054

>  <SCORE.INTRA.SOLV.lig_0>
-71.9159

>  <SCORE.INTRA.VDW>
1.02323

>  <SCORE.INTRA.VDW.0>
-3.53918

>  <SCORE.INTRA.norm>
0.00208261

>  <SCORE.RESTR>
0

>  <SCORE.RESTR.CAVITY>
0

>  <SCORE.RESTR.norm>
0

>  <SCORE.SYSTEM>
0

>  <SCORE.SYSTEM.CONST>
0

>  <SCORE.SYSTEM.DIHEDRAL>
0

>  <SCORE.SYSTEM.SOLV>
0

>  <SCORE.SYSTEM.norm>
0

>  <SCORE.heavy>
34

>  <SCORE.norm>
-0.344317

>  <RMSD>
7.091

$$$$
ligand
 OpenBabel01301917533D
libRbt.so/2013.1/901 2013/11/27
 34 36  0  0  0  0  0  0  0  0999 V2000
   18.4833   22.3555   32.5611 C   0  0  2  0  0  0  0  0  0  0  0  0
   18.0092   23.6872   32.3377 O   0  0  0  0  0  0  0  0  0  0  0  0
   15.3705   26.2736   34.5170 C   0  0  2  0  0  0  0  0  0  0  0  0
   14.7169   27.0023   35.6127 N   0  0  0  0  0  0  0  0  0  0  0  0
   17.9380   29.0336   34.5308 C   0  0  2  0  0  0  0  0  0  0  0  0
   19.7625   22.1368   31.6686 C   0  0  2  0  0  0  0  0  0  0  0  0
   20.8096   23.1154   32.0033 N   0  0  0  0  0  0  0  0  0  0  0  0
   15.3538   24.7453   34.8817 C   0  0  0  0  0  0  0  0  0  0  0  0
   17.4586   29.4025   35.9900 C   0  0  2  0  0  0  0  0  0  0  0  0
   17.3416   28.2319   36.7803 O   0  0  0  0  0  0  0  0  0  0  0  0
   19.3906   22.2456   30.1591 C   0  0  1  0  0  0  0  0  0  0  0  0
   20.5573   22.0465   29.3395 O   0  0  0  0  0  0  0  0  0  0  0  0
   16.0346   23.9661   33.7021 C   0  0  2  0  0  0  0  0  0  0  0  0
   16.0595   22.5024   33.9840 N   0  0  0  0  0  0  0  0  0  0  0  0
   16.0648   30.1287   35.8800 C   0  0  1  0  0  0  0  0  0  0  0  0
   15.5418   30.4694   37.2183 N   0  0  0  0  0  0  0  0  0  0  0  0
   18.2923   21.2013   29.8508 C   0  0  2  0  0  0  0  0  0  0  0  0
   17.9444   21.2763   28.4647 O   0  0  0  0  0  0  0  0  0  0  0  0
   17.4963   24.4602   33.4813 C   0  0  2  0  0  0  0  0  0  0  0  0
   16.2304   31.4190   35.0162 C   0  0  1  0  0  0  0  0  0  0  0  0
   17.1469   32.2868   35.6752 O   0  0  0  0  0  0  0  0  0  0  0  0
   17.0381   21.4875   30.7840 C   0  0  2  0  0  0  0  0  0  0  0  0
   17.4206   21.4156   32.2118 O   0  0  0  0  0  0  0  0  0  0  0  0
   17.4801   25.9854   33.1900 C   0  0  2  0  0  0  0  0  0  0  0  0
   18.8290   26.4170   33.0234 O   0  0  0  0  0  0  0  0  0  0  0  0
   16.7896   31.0190   33.6131 C   0  0  0  0  0  0  0  0  0  0  0  0
   18.0631   30.2696   33.7336 O   0  0  0  0  0  0  0  0  0  0  0  0
   15.8750   20.4810   30.5505 C   0  0  2  0  0  0  0  0  0  0  0  0
   15.4673   20.5411   29.1792 O   0  0  0  0  0  0  0  0  0  0  0  0
   16.8645   26.7894   34.3618 C   0  0  1  0  0  0  0  0  0  0  0  0
   16.8681   28.1948   33.9886 O   0  0  0  0  0  0  0  0  0  0  0  0
   14.6679   20.7940   31.4071 C   0  0  0  0  0  0  0  0  0  0  0  0
   14.9109   32.1731   34.8450 C   0  0  0  0  0  0  0  0  0  0  0  0
   14.5176   29.4543   37.5668 C   0  0  0  0  0  0  0  0  0  0  0  0
  1  2  1  6  0  0  0
  1  6  1  0  0  0  0
  1 23  1  0  0  0  0
  3  4  1  1  0  0  0
  3  8  1  0  0  0  0
  3 30  1  0  0  0  0
  5  9  1  0  0  0  0
  5 27  1  0  0  0  0
  5 31  1  6  0  0  0
  6  7  1  1  0  0  0
  6 11  1  0  0  0  0
  8 13  1  0  0  0  0
  9 10  1  1  0  0  0
  9 15  1  0  0  0  0
 11 12  1  6  0  0  0
 11 17  1  0  0  0  0
 13 14  1  1  0  0  0
 13 19  1  0  0  0  0
 15 16  1  1  0  0  0
 15 20  1  0  0  0  0
 16 34  1  0  0  0  0
 17 18  1  6  0  0  0
 17 22  1  0  0  0  0
 19  2  1  6  0  0  0
 19 24  1  0  0  0  0
 20 21  1  1  0  0  0
 20 26  1  0  0  0  0
 20 33  1  0  0  0  0
 22 23  1  1  0  0  0
 22 28  1  0  0  0  0
 24 25  1  1  0  0  0
 24 30  1  0  0  0  0
 26 27  1  0  0  0  0
 28 29  1  6  0  0  0
 28 32  1  0  0  0  0
 30 31  1  6  0  0  0
M  END
>  <CHROM.1>
-140.90978324,-80.65953574,-101.14145116,-58.36058502,144.63564791,-81.34160922
17.08957676,25.68240160,33.27479416,-1.40680105,0.52669779,0.43186199

>  <Name>
ligand

>  <RI>
0

>  <Rbt.Current_Directory>
/home/itssahil/PROJECTS/Mol_Feturizer/New_Systems/rnas/4p3s

>  <Rbt.Executable>
rbdock ($Id: //depot/dev/client3/rdock/2013.1/src/exe/rbdock.cxx#4 $)

>  <Rbt.Library>
libRbt.so (2013.1, Build901 2013/11/27)

>  <Rbt.Parameter_File>
/export/apps/rDock/src/rDock_2013.1_src/data/scripts/dock_solv.prm

>  <Rbt.Receptor>
prm/pocket_docking_7.prm

>  <SCORE>
-10.4246

>  <SCORE.INTER>
-12.918

>  <SCORE.INTER.CONST>
1

>  <SCORE.INTER.POLAR>
0

>  <SCORE.INTER.ROT>
6

>  <SCORE.INTER.SOLV>
17.948

>  <SCORE.INTER.VDW>
-22.1946

>  <SCORE.INTER.norm>
-0.379941

>  <SCORE.INTRA>
2.49342

>  <SCORE.INTRA.DIHEDRAL>
-1.08909

>  <SCORE.INTRA.DIHEDRAL.0>
15.8194

>  <SCORE.INTRA.POLAR>
0

>  <SCORE.INTRA.POLAR.0>
0

>  <SCORE.INTRA.REPUL>
0

>  <SCORE.INTRA.REPUL.0>
0

>  <SCORE.INTRA.SOLV>
5.29707

>  <SCORE.INTRA.SOLV.lig_0>
-71.9159

>  <SCORE.INTRA.VDW>
0.389428

>  <SCORE.INTRA.VDW.0>
-3.53918

>  <SCORE.INTRA.norm>
0.0733358

>  <SCORE.RESTR>
0

>  <SCORE.RESTR.CAVITY>
0

>  <SCORE.RESTR.norm>
0

>  <SCORE.SYSTEM>
0

>  <SCORE.SYSTEM.CONST>
0

>  <SCORE.SYSTEM.DIHEDRAL>
0

>  <SCORE.SYSTEM.SOLV>
0

>  <SCORE.SYSTEM.norm>
0

>  <SCORE.heavy>
34

>  <SCORE.norm>
-0.306605

>  <RMSD>
7.214

$$$$
ligand
 OpenBabel01301917533D
libRbt.so/2013.1/901 2013/11/27
 34 36  0  0  0  0  0  0  0  0999 V2000
   16.5701   23.5290   32.2726 C   0  0  2  0  0  0  0  0  0  0  0  0
   16.5334   24.0418   33.6082 O   0  0  0  0  0  0  0  0  0  0  0  0
   17.8474   27.8387   35.1113 C   0  0  2  0  0  0  0  0  0  0  0  0
   18.0047   29.2863   35.3069 N   0  0  0  0  0  0  0  0  0  0  0  0
   16.4658   29.0080   37.4319 C   0  0  2  0  0  0  0  0  0  0  0  0
   15.5366   22.3444   32.1761 C   0  0  2  0  0  0  0  0  0  0  0  0
   14.1790   22.8039   32.5105 N   0  0  0  0  0  0  0  0  0  0  0  0
   18.1070   27.5299   33.5926 C   0  0  0  0  0  0  0  0  0  0  0  0
   16.5070   28.8531   39.0034 C   0  0  2  0  0  0  0  0  0  0  0  0
   17.5446   27.9657   39.3835 O   0  0  0  0  0  0  0  0  0  0  0  0
   15.9582   21.1835   33.1265 C   0  0  1  0  0  0  0  0  0  0  0  0
   15.0160   20.0984   33.0416 O   0  0  0  0  0  0  0  0  0  0  0  0
   17.9578   25.9812   33.3886 C   0  0  2  0  0  0  0  0  0  0  0  0
   18.1860   25.6145   31.9618 N   0  0  0  0  0  0  0  0  0  0  0  0
   15.1115   28.2970   39.4786 C   0  0  1  0  0  0  0  0  0  0  0  0
   15.0962   28.0942   40.9413 N   0  0  0  0  0  0  0  0  0  0  0  0
   17.3856   20.7306   32.7399 C   0  0  2  0  0  0  0  0  0  0  0  0
   17.7879   19.6551   33.5940 O   0  0  0  0  0  0  0  0  0  0  0  0
   16.5362   25.5004   33.8097 C   0  0  2  0  0  0  0  0  0  0  0  0
   13.9933   29.3023   39.0573 C   0  0  1  0  0  0  0  0  0  0  0  0
   14.2362   30.5445   39.7095 O   0  0  0  0  0  0  0  0  0  0  0  0
   18.3679   21.9739   32.8641 C   0  0  2  0  0  0  0  0  0  0  0  0
   17.9290   23.0779   31.9818 O   0  0  0  0  0  0  0  0  0  0  0  0
   16.2885   25.8814   35.2946 C   0  0  2  0  0  0  0  0  0  0  0  0
   14.9721   25.4593   35.6447 O   0  0  0  0  0  0  0  0  0  0  0  0
   14.0450   29.4946   37.5075 C   0  0  0  0  0  0  0  0  0  0  0  0
   15.3862   29.9451   37.0644 O   0  0  0  0  0  0  0  0  0  0  0  0
   19.8353   21.6182   32.4894 C   0  0  2  0  0  0  0  0  0  0  0  0
   20.3300   20.6331   33.4031 O   0  0  0  0  0  0  0  0  0  0  0  0
   16.3731   27.4114   35.5189 C   0  0  1  0  0  0  0  0  0  0  0  0
   16.1555   27.6673   36.9338 O   0  0  0  0  0  0  0  0  0  0  0  0
   20.7511   22.8201   32.5630 C   0  0  0  0  0  0  0  0  0  0  0  0
   12.6003   28.8221   39.4670 C   0  0  0  0  0  0  0  0  0  0  0  0
   15.2576   26.6406   41.1900 C   0  0  0  0  0  0  0  0  0  0  0  0
  1  2  1  1  0  0  0
  1  6  1  0  0  0  0
  1 23  1  0  0  0  0
  3  4  1  6  0  0  0
  3  8  1  0  0  0  0
  3 30  1  0  0  0  0
  5  9  1  0  0  0  0
  5 27  1  0  0  0  0
  5 31  1  6  0  0  0
  6  7  1  1  0  0  0
  6 11  1  0  0  0  0
  8 13  1  0  0  0  0
  9 10  1  6  0  0  0
  9 15  1  0  0  0  0
 11 12  1  6  0  0  0
 11 17  1  0  0  0  0
 13 14  1  6  0  0  0
 13 19  1  0  0  0  0
 15 16  1  1  0  0  0
 15 20  1  0  0  0  0
 16 34  1  0  0  0  0
 17 18  1  1  0  0  0
 17 22  1  0  0  0  0
 19  2  1  1  0  0  0
 19 24  1  0  0  0  0
 20 21  1  1  0  0  0
 20 26  1  0  0  0  0
 20 33  1  0  0  0  0
 22 23  1  6  0  0  0
 22 28  1  0  0  0  0
 24 25  1  6  0  0  0
 24 30  1  0  0  0  0
 26 27  1  0  0  0  0
 28 29  1  1  0  0  0
 28 32  1  0  0  0  0
 30 31  1  1  0  0  0
M  END
>  <CHROM.1>
-136.60757368,-69.48678517,-102.52327699,-62.54110060,52.05006776,-165.12760021
16.55402493,25.55467002,35.41110190,-1.21099057,0.71376558,0.47521692

>  <Name>
ligand

>  <RI>
0

>  <Rbt.Current_Directory>
/home/itssahil/PROJECTS/Mol_Feturizer/New_Systems/rnas/4p3s

>  <Rbt.Executable>
rbdock ($Id: //depot/dev/client3/rdock/2013.1/src/exe/rbdock.cxx#4 $)

>  <Rbt.Library>
libRbt.so (2013.1, Build901 2013/11/27)

>  <Rbt.Parameter_File>
/export/apps/rDock/src/rDock_2013.1_src/data/scripts/dock_solv.prm

>  <Rbt.Receptor>
prm/pocket_docking_8.prm

>  <SCORE>
-10.9297

>  <SCORE.INTER>
-11.5576

>  <SCORE.INTER.CONST>
1

>  <SCORE.INTER.POLAR>
0

>  <SCORE.INTER.ROT>
6

>  <SCORE.INTER.SOLV>
15.777

>  <SCORE.INTER.VDW>
-20.5641

>  <SCORE.INTER.norm>
-0.339931

>  <SCORE.INTRA>
0.627917

>  <SCORE.INTRA.DIHEDRAL>
-7.03342

>  <SCORE.INTRA.DIHEDRAL.0>
15.8194

>  <SCORE.INTRA.POLAR>
0

>  <SCORE.INTRA.POLAR.0>
0

>  <SCORE.INTRA.REPUL>
0

>  <SCORE.INTRA.REPUL.0>
0

>  <SCORE.INTRA.SOLV>
2.80011

>  <SCORE.INTRA.SOLV.lig_0>
-71.9159

>  <SCORE.INTRA.VDW>
2.74457

>  <SCORE.INTRA.VDW.0>
-3.53918

>  <SCORE.INTRA.norm>
0.0184681

>  <SCORE.RESTR>
0

>  <SCORE.RESTR.CAVITY>
0

>  <SCORE.RESTR.norm>
0

>  <SCORE.SYSTEM>
0

>  <SCORE.SYSTEM.CONST>
0

>  <SCORE.SYSTEM.DIHEDRAL>
0

>  <SCORE.SYSTEM.SOLV>
0

>  <SCORE.SYSTEM.norm>
0

>  <SCORE.heavy>
34

>  <SCORE.norm>
-0.321463

>  <RMSD>
7.226

$$$$
ligand
 OpenBabel01301917533D
libRbt.so/2013.1/901 2013/11/27
 34 36  0  0  0  0  0  0  0  0999 V2000
   23.2945   28.8533   39.7925 C   0  0  2  0  0  0  0  0  0  0  0  0
   23.6330   29.5147   38.5693 O   0  0  0  0  0  0  0  0  0  0  0  0
   19.8932   31.5423   38.0174 C   0  0  2  0  0  0  0  0  0  0  0  0
   18.8797   32.5112   37.5784 N   0  0  0  0  0  0  0  0  0  0  0  0
   19.2581   29.9616   34.6995 C   0  0  2  0  0  0  0  0  0  0  0  0
   24.4796   27.8864   40.1686 C   0  0  2  0  0  0  0  0  0  0  0  0
   25.7381   28.6339   40.3226 N   0  0  0  0  0  0  0  0  0  0  0  0
   21.0615   32.3456   38.6949 C   0  0  0  0  0  0  0  0  0  0  0  0
   17.7632   29.5519   34.3950 C   0  0  2  0  0  0  0  0  0  0  0  0
   16.8713   30.5254   34.9103 O   0  0  0  0  0  0  0  0  0  0  0  0
   24.6415   26.7841   39.0788 C   0  0  1  0  0  0  0  0  0  0  0  0
   25.7241   25.8981   39.4186 O   0  0  0  0  0  0  0  0  0  0  0  0
   22.1342   31.3086   39.1807 C   0  0  2  0  0  0  0  0  0  0  0  0
   23.2809   32.0042   39.8317 N   0  0  0  0  0  0  0  0  0  0  0  0
   17.4912   28.1526   35.0660 C   0  0  1  0  0  0  0  0  0  0  0  0
   16.0938   27.7273   34.8484 N   0  0  0  0  0  0  0  0  0  0  0  0
   23.3008   26.0235   38.9515 C   0  0  2  0  0  0  0  0  0  0  0  0
   23.4318   24.9971   37.9629 O   0  0  0  0  0  0  0  0  0  0  0  0
   22.6715   30.4648   37.9854 C   0  0  2  0  0  0  0  0  0  0  0  0
   18.4789   27.1013   34.4680 C   0  0  1  0  0  0  0  0  0  0  0  0
   18.2296   26.9939   33.0703 O   0  0  0  0  0  0  0  0  0  0  0  0
   22.1589   27.0607   38.5689 C   0  0  2  0  0  0  0  0  0  0  0  0
   22.0467   28.1188   39.5974 O   0  0  0  0  0  0  0  0  0  0  0  0
   21.4826   29.7388   37.2991 C   0  0  2  0  0  0  0  0  0  0  0  0
   21.9961   29.0007   36.1923 O   0  0  0  0  0  0  0  0  0  0  0  0
   19.9434   27.5882   34.7125 C   0  0  0  0  0  0  0  0  0  0  0  0
   20.1650   28.9388   34.1426 O   0  0  0  0  0  0  0  0  0  0  0  0
   20.7636   26.3886   38.4216 C   0  0  2  0  0  0  0  0  0  0  0  0
   20.7922   25.4793   37.3159 O   0  0  0  0  0  0  0  0  0  0  0  0
   20.4316   30.7391   36.7576 C   0  0  1  0  0  0  0  0  0  0  0  0
   19.3512   29.9707   36.1601 O   0  0  0  0  0  0  0  0  0  0  0  0
   19.6674   27.3986   38.1630 C   0  0  0  0  0  0  0  0  0  0  0  0
   18.2909   25.7149   35.0857 C   0  0  0  0  0  0  0  0  0  0  0  0
   15.3500   27.9850   36.1058 C   0  0  0  0  0  0  0  0  0  0  0  0
  1  2  1  6  0  0  0
  1  6  1  0  0  0  0
  1 23  1  0  0  0  0
  3  4  1  6  0  0  0
  3  8  1  0  0  0  0
  3 30  1  0  0  0  0
  5  9  1  0  0  0  0
  5 27  1  0  0  0  0
  5 31  1  1  0  0  0
  6  7  1  6  0  0  0
  6 11  1  0  0  0  0
  8 13  1  0  0  0  0
  9 10  1  1  0  0  0
  9 15  1  0  0  0  0
 11 12  1  1  0  0  0
 11 17  1  0  0  0  0
 13 14  1  6  0  0  0
 13 19  1  0  0  0  0
 15 16  1  6  0  0  0
 15 20  1  0  0  0  0
 16 34  1  0  0  0  0
 17 18  1  6  0  0  0
 17 22  1  0  0  0  0
 19  2  1  1  0  0  0
 19 24  1  0  0  0  0
 20 21  1  6  0  0  0
 20 26  1  0  0  0  0
 20 33  1  0  0  0  0
 22 23  1  1  0  0  0
 22 28  1  0  0  0  0
 24 25  1  6  0  0  0
 24 30  1  0  0  0  0
 26 27  1  0  0  0  0
 28 29  1  6  0  0  0
 28 32  1  0  0  0  0
 30 31  1  1  0  0  0
M  END
>  <CHROM.1>
178.99356077,42.95122857,-102.07304832,-64.88592811,137.59519801,-159.15151836
20.83627586,28.57555762,37.19299840,0.06974195,-0.61723829,0.22480873

>  <Name>
ligand

>  <RI>
0

>  <Rbt.Current_Directory>
/home/itssahil/PROJECTS/Mol_Feturizer/New_Systems/rnas/4p3s

>  <Rbt.Executable>
rbdock ($Id: //depot/dev/client3/rdock/2013.1/src/exe/rbdock.cxx#4 $)

>  <Rbt.Library>
libRbt.so (2013.1, Build901 2013/11/27)

>  <Rbt.Parameter_File>
/export/apps/rDock/src/rDock_2013.1_src/data/scripts/dock_solv.prm

>  <Rbt.Receptor>
prm/pocket_docking_5.prm

>  <SCORE>
-7.00655

>  <SCORE.INTER>
-4.51907

>  <SCORE.INTER.CONST>
1

>  <SCORE.INTER.POLAR>
0

>  <SCORE.INTER.ROT>
6

>  <SCORE.INTER.SOLV>
13.8431

>  <SCORE.INTER.VDW>
-15.2271

>  <SCORE.INTER.norm>
-0.132914

>  <SCORE.INTRA>
-2.48747

>  <SCORE.INTRA.DIHEDRAL>
-5.72942

>  <SCORE.INTRA.DIHEDRAL.0>
15.8194

>  <SCORE.INTRA.POLAR>
0

>  <SCORE.INTRA.POLAR.0>
0

>  <SCORE.INTRA.REPUL>
0

>  <SCORE.INTRA.REPUL.0>
0

>  <SCORE.INTRA.SOLV>
0.694941

>  <SCORE.INTRA.SOLV.lig_0>
-71.9159

>  <SCORE.INTRA.VDW>
0.0297648

>  <SCORE.INTRA.VDW.0>
-3.53918

>  <SCORE.INTRA.norm>
-0.073161

>  <SCORE.RESTR>
0

>  <SCORE.RESTR.CAVITY>
0

>  <SCORE.RESTR.norm>
0

>  <SCORE.SYSTEM>
0

>  <SCORE.SYSTEM.CONST>
0

>  <SCORE.SYSTEM.DIHEDRAL>
0

>  <SCORE.SYSTEM.SOLV>
0

>  <SCORE.SYSTEM.norm>
0

>  <SCORE.heavy>
34

>  <SCORE.norm>
-0.206075

>  <RMSD>
7.287

$$$$
ligand
 OpenBabel01301917533D
libRbt.so/2013.1/901 2013/11/27
 34 36  0  0  0  0  0  0  0  0999 V2000
   22.7393   32.3689   37.2169 C   0  0  2  0  0  0  0  0  0  0  0  0
   21.4755   31.7069   37.3301 O   0  0  0  0  0  0  0  0  0  0  0  0
   20.7717   27.4805   37.5412 C   0  0  2  0  0  0  0  0  0  0  0  0
   20.5304   26.0826   37.1588 N   0  0  0  0  0  0  0  0  0  0  0  0
   22.8392   26.4687   39.0008 C   0  0  2  0  0  0  0  0  0  0  0  0
   22.5732   33.8350   37.7679 C   0  0  2  0  0  0  0  0  0  0  0  0
   22.1267   33.8214   39.1702 N   0  0  0  0  0  0  0  0  0  0  0  0
   19.6785   28.3644   36.8391 C   0  0  0  0  0  0  0  0  0  0  0  0
   23.2929   27.4776   40.1284 C   0  0  2  0  0  0  0  0  0  0  0  0
   22.5947   28.7043   40.0013 O   0  0  0  0  0  0  0  0  0  0  0  0
   21.5582   34.6280   36.8904 C   0  0  1  0  0  0  0  0  0  0  0  0
   21.4032   35.9689   37.3907 O   0  0  0  0  0  0  0  0  0  0  0  0
   19.9253   29.8547   37.2637 C   0  0  2  0  0  0  0  0  0  0  0  0
   18.9230   30.7557   36.6264 N   0  0  0  0  0  0  0  0  0  0  0  0
   24.8436   27.7140   39.9805 C   0  0  1  0  0  0  0  0  0  0  0  0
   25.3269   28.6805   40.9872 N   0  0  0  0  0  0  0  0  0  0  0  0
   22.0657   34.6196   35.4295 C   0  0  2  0  0  0  0  0  0  0  0  0
   21.1528   35.3541   34.6078 O   0  0  0  0  0  0  0  0  0  0  0  0
   21.3541   30.3202   36.8500 C   0  0  2  0  0  0  0  0  0  0  0  0
   25.5836   26.3482   40.1388 C   0  0  1  0  0  0  0  0  0  0  0  0
   25.3210   25.8428   41.4438 O   0  0  0  0  0  0  0  0  0  0  0  0
   22.2047   33.1123   34.9450 C   0  0  2  0  0  0  0  0  0  0  0  0
   23.1440   32.3679   35.8130 O   0  0  0  0  0  0  0  0  0  0  0  0
   22.4050   29.3846   37.5071 C   0  0  2  0  0  0  0  0  0  0  0  0
   23.6994   29.8121   37.0881 O   0  0  0  0  0  0  0  0  0  0  0  0
   25.0424   25.3530   39.0626 C   0  0  0  0  0  0  0  0  0  0  0  0
   23.5714   25.1974   39.1632 O   0  0  0  0  0  0  0  0  0  0  0  0
   22.7162   32.9982   33.4802 C   0  0  2  0  0  0  0  0  0  0  0  0
   23.8259   33.8845   33.2976 O   0  0  0  0  0  0  0  0  0  0  0  0
   22.2234   27.9121   37.0631 C   0  0  1  0  0  0  0  0  0  0  0  0
   23.2286   27.1134   37.7459 O   0  0  0  0  0  0  0  0  0  0  0  0
   21.6522   33.3739   32.4725 C   0  0  0  0  0  0  0  0  0  0  0  0
   27.0988   26.4909   39.9875 C   0  0  0  0  0  0  0  0  0  0  0  0
   25.4808   29.9902   40.3077 C   0  0  0  0  0  0  0  0  0  0  0  0
  1  2  1  6  0  0  0
  1  6  1  0  0  0  0
  1 23  1  0  0  0  0
  3  4  1  6  0  0  0
  3  8  1  0  0  0  0
  3 30  1  0  0  0  0
  5  9  1  0  0  0  0
  5 27  1  0  0  0  0
  5 31  1  6  0  0  0
  6  7  1  1  0  0  0
  6 11  1  0  0  0  0
  8 13  1  0  0  0  0
  9 10  1  6  0  0  0
  9 15  1  0  0  0  0
 11 12  1  1  0  0  0
 11 17  1  0  0  0  0
 13 14  1  6  0  0  0
 13 19  1  0  0  0  0
 15 16  1  1  0  0  0
 15 20  1  0  0  0  0
 16 34  1  0  0  0  0
 17 18  1  6  0  0  0
 17 22  1  0  0  0  0
 19  2  1  1  0  0  0
 19 24  1  0  0  0  0
 20 21  1  1  0  0  0
 20 26  1  0  0  0  0
 20 33  1  0  0  0  0
 22 23  1  1  0  0  0
 22 28  1  0  0  0  0
 24 25  1  6  0  0  0
 24 30  1  0  0  0  0
 26 27  1  0  0  0  0
 28 29  1  1  0  0  0
 28 32  1  0  0  0  0
 30 31  1  1  0  0  0
M  END
>  <CHROM.1>
178.60408367,173.73526320,-101.04752164,45.80138695,-21.12704154,-94.39934757
22.74050359,30.12048668,37.57127643,-1.93598340,0.68032363,2.84419545

>  <Name>
ligand

>  <RI>
0

>  <Rbt.Current_Directory>
/home/itssahil/PROJECTS/Mol_Feturizer/New_Systems/rnas/4p3s

>  <Rbt.Executable>
rbdock ($Id: //depot/dev/client3/rdock/2013.1/src/exe/rbdock.cxx#4 $)

>  <Rbt.Library>
libRbt.so (2013.1, Build901 2013/11/27)

>  <Rbt.Parameter_File>
/export/apps/rDock/src/rDock_2013.1_src/data/scripts/dock_solv.prm

>  <Rbt.Receptor>
prm/pocket_docking_5.prm

>  <SCORE>
-4.223

>  <SCORE.INTER>
-5.22721

>  <SCORE.INTER.CONST>
1

>  <SCORE.INTER.POLAR>
0

>  <SCORE.INTER.ROT>
6

>  <SCORE.INTER.SOLV>
12.4931

>  <SCORE.INTER.VDW>
-15.2492

>  <SCORE.INTER.norm>
-0.153741

>  <SCORE.INTRA>
0.997374

>  <SCORE.INTRA.DIHEDRAL>
-4.38124

>  <SCORE.INTRA.DIHEDRAL.0>
15.8194

>  <SCORE.INTRA.POLAR>
0

>  <SCORE.INTRA.POLAR.0>
0

>  <SCORE.INTRA.REPUL>
0

>  <SCORE.INTRA.REPUL.0>
0

>  <SCORE.INTRA.SOLV>
0.176296

>  <SCORE.INTRA.SOLV.lig_0>
-71.9159

>  <SCORE.INTRA.VDW>
3.09984

>  <SCORE.INTRA.VDW.0>
-3.53918

>  <SCORE.INTRA.norm>
0.0293345

>  <SCORE.RESTR>
0.00683329

>  <SCORE.RESTR.CAVITY>
0.00683329

>  <SCORE.RESTR.norm>
0.000200979

>  <SCORE.SYSTEM>
0

>  <SCORE.SYSTEM.CONST>
0

>  <SCORE.SYSTEM.DIHEDRAL>
0

>  <SCORE.SYSTEM.SOLV>
0

>  <SCORE.SYSTEM.norm>
0

>  <SCORE.heavy>
34

>  <SCORE.norm>
-0.124206

>  <RMSD>
7.294

$$$$
ligand
 OpenBabel01301917533D
libRbt.so/2013.1/901 2013/11/27
 34 36  0  0  0  0  0  0  0  0999 V2000
   19.9704   33.6468   37.7933 C   0  0  2  0  0  0  0  0  0  0  0  0
   19.6780   32.3408   37.2862 O   0  0  0  0  0  0  0  0  0  0  0  0
   20.5480   28.4824   38.9469 C   0  0  2  0  0  0  0  0  0  0  0  0
   21.2567   27.2563   39.3381 N   0  0  0  0  0  0  0  0  0  0  0  0
   21.7246   28.4979   41.8222 C   0  0  2  0  0  0  0  0  0  0  0  0
   19.0917   34.6861   37.0004 C   0  0  2  0  0  0  0  0  0  0  0  0
   17.6589   34.3869   37.1534 N   0  0  0  0  0  0  0  0  0  0  0  0
   20.7206   28.6606   37.3952 C   0  0  0  0  0  0  0  0  0  0  0  0
   21.3382   28.6357   43.3477 C   0  0  2  0  0  0  0  0  0  0  0  0
   19.9501   28.4119   43.5260 O   0  0  0  0  0  0  0  0  0  0  0  0
   19.4817   34.6803   35.4914 C   0  0  1  0  0  0  0  0  0  0  0  0
   18.6807   35.6289   34.7628 O   0  0  0  0  0  0  0  0  0  0  0  0
   19.9472   29.9598   36.9755 C   0  0  2  0  0  0  0  0  0  0  0  0
   20.0733   30.1960   35.5090 N   0  0  0  0  0  0  0  0  0  0  0  0
   21.7225   30.0880   43.8222 C   0  0  1  0  0  0  0  0  0  0  0  0
   21.3521   30.2947   45.2368 N   0  0  0  0  0  0  0  0  0  0  0  0
   20.9904   35.0007   35.3764 C   0  0  2  0  0  0  0  0  0  0  0  0
   21.3672   35.0124   33.9958 O   0  0  0  0  0  0  0  0  0  0  0  0
   20.4998   31.2041   37.7342 C   0  0  2  0  0  0  0  0  0  0  0  0
   23.2574   30.2977   43.6259 C   0  0  1  0  0  0  0  0  0  0  0  0
   23.9479   29.3540   44.4383 O   0  0  0  0  0  0  0  0  0  0  0  0
   21.8083   33.9118   36.1958 C   0  0  2  0  0  0  0  0  0  0  0  0
   21.3970   33.9085   37.6174 O   0  0  0  0  0  0  0  0  0  0  0  0
   20.3753   30.9653   39.2635 C   0  0  2  0  0  0  0  0  0  0  0  0
   20.9156   32.1026   39.9331 O   0  0  0  0  0  0  0  0  0  0  0  0
   23.6103   30.0655   42.1215 C   0  0  0  0  0  0  0  0  0  0  0  0
   23.1750   28.7233   41.6663 O   0  0  0  0  0  0  0  0  0  0  0  0
   23.3446   34.1520   36.1442 C   0  0  2  0  0  0  0  0  0  0  0  0
   23.7989   34.0115   34.7937 O   0  0  0  0  0  0  0  0  0  0  0  0
   21.1754   29.7201   39.7194 C   0  0  1  0  0  0  0  0  0  0  0  0
   20.9779   29.5631   41.1516 O   0  0  0  0  0  0  0  0  0  0  0  0
   24.1068   33.1605   36.9953 C   0  0  0  0  0  0  0  0  0  0  0  0
   23.7080   31.6972   44.0469 C   0  0  0  0  0  0  0  0  0  0  0  0
   20.0567   31.0176   45.2558 C   0  0  0  0  0  0  0  0  0  0  0  0
  1  2  1  6  0  0  0
  1  6  1  0  0  0  0
  1 23  1  0  0  0  0
  3  4  1  1  0  0  0
  3  8  1  0  0  0  0
  3 30  1  0  0  0  0
  5  9  1  0  0  0  0
  5 27  1  0  0  0  0
  5 31  1  6  0  0  0
  6  7  1  6  0  0  0
  6 11  1  0  0  0  0
  8 13  1  0  0  0  0
  9 10  1  6  0  0  0
  9 15  1  0  0  0  0
 11 12  1  6  0  0  0
 11 17  1  0  0  0  0
 13 14  1  6  0  0  0
 13 19  1  0  0  0  0
 15 16  1  1  0  0  0
 15 20  1  0  0  0  0
 16 34  1  0  0  0  0
 17 18  1  6  0  0  0
 17 22  1  0  0  0  0
 19  2  1  6  0  0  0
 19 24  1  0  0  0  0
 20 21  1  1  0  0  0
 20 26  1  0  0  0  0
 20 33  1  0  0  0  0
 22 23  1  1  0  0  0
 22 28  1  0  0  0  0
 24 25  1  1  0  0  0
 24 30  1  0  0  0  0
 26 27  1  0  0  0  0
 28 29  1  6  0  0  0
 28 32  1  0  0  0  0
 30 31  1  1  0  0  0
M  END
>  <CHROM.1>
171.86575565,-178.56850051,-98.60079231,-63.94602000,68.92937825,177.68840725
21.24450509,31.48200780,39.28505023,-1.84092433,1.01279206,2.34086986

>  <Name>
ligand

>  <RI>
0

>  <Rbt.Current_Directory>
/home/itssahil/PROJECTS/Mol_Feturizer/New_Systems/rnas/4p3s

>  <Rbt.Executable>
rbdock ($Id: //depot/dev/client3/rdock/2013.1/src/exe/rbdock.cxx#4 $)

>  <Rbt.Library>
libRbt.so (2013.1, Build901 2013/11/27)

>  <Rbt.Parameter_File>
/export/apps/rDock/src/rDock_2013.1_src/data/scripts/dock_solv.prm

>  <Rbt.Receptor>
prm/pocket_docking_8.prm

>  <SCORE>
-6.78305

>  <SCORE.INTER>
-0.294734

>  <SCORE.INTER.CONST>
1

>  <SCORE.INTER.POLAR>
0

>  <SCORE.INTER.ROT>
6

>  <SCORE.INTER.SOLV>
4.89546

>  <SCORE.INTER.VDW>
-9.42831

>  <SCORE.INTER.norm>
-0.00866866

>  <SCORE.INTRA>
-6.48831

>  <SCORE.INTRA.DIHEDRAL>
-14.0528

>  <SCORE.INTRA.DIHEDRAL.0>
15.8194

>  <SCORE.INTRA.POLAR>
0

>  <SCORE.INTRA.POLAR.0>
0

>  <SCORE.INTRA.REPUL>
0

>  <SCORE.INTRA.REPUL.0>
0

>  <SCORE.INTRA.SOLV>
-0.512327

>  <SCORE.INTRA.SOLV.lig_0>
-71.9159

>  <SCORE.INTRA.VDW>
0.794251

>  <SCORE.INTRA.VDW.0>
-3.53918

>  <SCORE.INTRA.norm>
-0.190833

>  <SCORE.RESTR>
0

>  <SCORE.RESTR.CAVITY>
0

>  <SCORE.RESTR.norm>
0

>  <SCORE.SYSTEM>
0

>  <SCORE.SYSTEM.CONST>
0

>  <SCORE.SYSTEM.DIHEDRAL>
0

>  <SCORE.SYSTEM.SOLV>
0

>  <SCORE.SYSTEM.norm>
0

>  <SCORE.heavy>
34

>  <SCORE.norm>
-0.199501

>  <RMSD>
7.307

$$$$
ligand
 OpenBabel01301917533D
libRbt.so/2013.1/901 2013/11/27
 34 36  0  0  0  0  0  0  0  0999 V2000
   21.1636   35.2685   31.3617 C   0  0  2  0  0  0  0  0  0  0  0  0
   20.4209   34.2019   31.9608 O   0  0  0  0  0  0  0  0  0  0  0  0
   20.9918   31.3067   35.0743 C   0  0  2  0  0  0  0  0  0  0  0  0
   21.5729   30.2434   35.9052 N   0  0  0  0  0  0  0  0  0  0  0  0
   22.8844   34.1613   36.8464 C   0  0  2  0  0  0  0  0  0  0  0  0
   20.1512   36.1919   30.5851 C   0  0  2  0  0  0  0  0  0  0  0  0
   19.1271   36.7298   31.4951 N   0  0  0  0  0  0  0  0  0  0  0  0
   20.9325   30.7799   33.5951 C   0  0  0  0  0  0  0  0  0  0  0  0
   24.1267   33.4061   37.4643 C   0  0  2  0  0  0  0  0  0  0  0  0
   24.6991   32.5336   36.5054 O   0  0  0  0  0  0  0  0  0  0  0  0
   19.4748   35.3958   29.4285 C   0  0  1  0  0  0  0  0  0  0  0  0
   18.5484   36.2363   28.7159 O   0  0  0  0  0  0  0  0  0  0  0  0
   20.2940   31.9089   32.7120 C   0  0  2  0  0  0  0  0  0  0  0  0
   20.2115   31.4784   31.2872 N   0  0  0  0  0  0  0  0  0  0  0  0
   23.6314   32.5904   38.7180 C   0  0  1  0  0  0  0  0  0  0  0  0
   24.7429   31.8292   39.3231 N   0  0  0  0  0  0  0  0  0  0  0  0
   20.5835   34.8520   28.4973 C   0  0  2  0  0  0  0  0  0  0  0  0
   19.9823   34.1269   27.4199 O   0  0  0  0  0  0  0  0  0  0  0  0
   21.1345   33.2190   32.7932 C   0  0  2  0  0  0  0  0  0  0  0  0
   23.0197   33.5800   39.7594 C   0  0  1  0  0  0  0  0  0  0  0  0
   24.0395   34.4824   40.1754 O   0  0  0  0  0  0  0  0  0  0  0  0
   21.5598   33.9307   29.3483 C   0  0  2  0  0  0  0  0  0  0  0  0
   22.1626   34.6957   30.4625 O   0  0  0  0  0  0  0  0  0  0  0  0
   21.2284   33.6731   34.2752 C   0  0  2  0  0  0  0  0  0  0  0  0
   22.0270   34.8536   34.3251 O   0  0  0  0  0  0  0  0  0  0  0  0
   21.8535   34.3689   39.0818 C   0  0  0  0  0  0  0  0  0  0  0  0
   22.3154   35.0708   37.8603 O   0  0  0  0  0  0  0  0  0  0  0  0
   22.7178   33.3365   28.4961 C   0  0  2  0  0  0  0  0  0  0  0  0
   22.1741   32.7326   27.3172 O   0  0  0  0  0  0  0  0  0  0  0  0
   21.9065   32.6018   35.1644 C   0  0  1  0  0  0  0  0  0  0  0  0
   21.9251   33.1024   36.5296 O   0  0  0  0  0  0  0  0  0  0  0  0
   23.4922   32.2749   29.2457 C   0  0  0  0  0  0  0  0  0  0  0  0
   22.4954   32.8596   41.0025 C   0  0  0  0  0  0  0  0  0  0  0  0
   24.7713   30.4944   38.6763 C   0  0  0  0  0  0  0  0  0  0  0  0
  1  2  1  6  0  0  0
  1  6  1  0  0  0  0
  1 23  1  0  0  0  0
  3  4  1  1  0  0  0
  3  8  1  0  0  0  0
  3 30  1  0  0  0  0
  5  9  1  0  0  0  0
  5 27  1  0  0  0  0
  5 31  1  1  0  0  0
  6  7  1  1  0  0  0
  6 11  1  0  0  0  0
  8 13  1  0  0  0  0
  9 10  1  6  0  0  0
  9 15  1  0  0  0  0
 11 12  1  6  0  0  0
 11 17  1  0  0  0  0
 13 14  1  6  0  0  0
 13 19  1  0  0  0  0
 15 16  1  1  0  0  0
 15 20  1  0  0  0  0
 16 34  1  0  0  0  0
 17 18  1  6  0  0  0
 17 22  1  0  0  0  0
 19  2  1  6  0  0  0
 19 24  1  0  0  0  0
 20 21  1  1  0  0  0
 20 26  1  0  0  0  0
 20 33  1  0  0  0  0
 22 23  1  1  0  0  0
 22 28  1  0  0  0  0
 24 25  1  6  0  0  0
 24 30  1  0  0  0  0
 26 27  1  0  0  0  0
 28 29  1  6  0  0  0
 28 32  1  0  0  0  0
 30 31  1  1  0  0  0
M  END
>  <CHROM.1>
-177.70957704,-153.40963972,-90.39663336,-50.29347766,170.41315744,-96.39462762
21.84804092,33.49843886,33.85325691,2.13441896,1.05918393,-1.92817839

>  <Name>
ligand

>  <RI>
0

>  <Rbt.Current_Directory>
/home/itssahil/PROJECTS/Mol_Feturizer/New_Systems/rnas/4p3s

>  <Rbt.Executable>
rbdock ($Id: //depot/dev/client3/rdock/2013.1/src/exe/rbdock.cxx#4 $)

>  <Rbt.Library>
libRbt.so (2013.1, Build901 2013/11/27)

>  <Rbt.Parameter_File>
/export/apps/rDock/src/rDock_2013.1_src/data/scripts/dock_solv.prm

>  <Rbt.Receptor>
prm/blind_docking_100.prm

>  <SCORE>
0.550195

>  <SCORE.INTER>
-2.46093

>  <SCORE.INTER.CONST>
1

>  <SCORE.INTER.POLAR>
0

>  <SCORE.INTER.ROT>
6

>  <SCORE.INTER.SOLV>
10.9071

>  <SCORE.INTER.VDW>
-12.8763

>  <SCORE.INTER.norm>
-0.0723802

>  <SCORE.INTRA>
-2.30496

>  <SCORE.INTRA.DIHEDRAL>
-6.56564

>  <SCORE.INTRA.DIHEDRAL.0>
15.8194

>  <SCORE.INTRA.POLAR>
0

>  <SCORE.INTRA.POLAR.0>
0

>  <SCORE.INTRA.REPUL>
0

>  <SCORE.INTRA.REPUL.0>
0

>  <SCORE.INTRA.SOLV>
0.86083

>  <SCORE.INTRA.SOLV.lig_0>
-71.9159

>  <SCORE.INTRA.VDW>
0.547448

>  <SCORE.INTRA.VDW.0>
-3.53918

>  <SCORE.INTRA.norm>
-0.0677929

>  <SCORE.RESTR>
5.31608

>  <SCORE.RESTR.CAVITY>
5.31608

>  <SCORE.RESTR.norm>
0.156355

>  <SCORE.SYSTEM>
0

>  <SCORE.SYSTEM.CONST>
0

>  <SCORE.SYSTEM.DIHEDRAL>
0

>  <SCORE.SYSTEM.SOLV>
0

>  <SCORE.SYSTEM.norm>
0

>  <SCORE.heavy>
34

>  <SCORE.norm>
0.0161822

>  <RMSD>
7.333

$$$$
ligand
 OpenBabel01301917533D
libRbt.so/2013.1/901 2013/11/27
 34 36  0  0  0  0  0  0  0  0999 V2000
   17.2416   33.0713   37.0519 C   0  0  2  0  0  0  0  0  0  0  0  0
   17.8513   34.2468   36.5090 O   0  0  0  0  0  0  0  0  0  0  0  0
   22.0044   35.2803   36.8027 C   0  0  2  0  0  0  0  0  0  0  0  0
   23.2738   35.8466   37.2785 N   0  0  0  0  0  0  0  0  0  0  0  0
   23.7598   33.3781   38.4771 C   0  0  2  0  0  0  0  0  0  0  0  0
   16.0023   32.7043   36.1518 C   0  0  2  0  0  0  0  0  0  0  0  0
   16.4164   32.4693   34.7592 N   0  0  0  0  0  0  0  0  0  0  0  0
   20.9701   36.4572   36.6834 C   0  0  0  0  0  0  0  0  0  0  0  0
   24.4665   31.9686   38.5731 C   0  0  2  0  0  0  0  0  0  0  0  0
   24.6198   31.4058   37.2814 O   0  0  0  0  0  0  0  0  0  0  0  0
   14.9393   33.8426   36.2095 C   0  0  1  0  0  0  0  0  0  0  0  0
   13.8046   33.5113   35.3878 O   0  0  0  0  0  0  0  0  0  0  0  0
   19.6204   35.8544   36.1567 C   0  0  2  0  0  0  0  0  0  0  0  0
   18.5854   36.9191   36.0242 N   0  0  0  0  0  0  0  0  0  0  0  0
   23.5751   31.0328   39.4742 C   0  0  1  0  0  0  0  0  0  0  0  0
   24.1644   29.6824   39.5749 N   0  0  0  0  0  0  0  0  0  0  0  0
   14.5313   34.0546   37.6862 C   0  0  2  0  0  0  0  0  0  0  0  0
   13.5452   35.0890   37.7603 O   0  0  0  0  0  0  0  0  0  0  0  0
   19.0888   34.7546   37.1247 C   0  0  2  0  0  0  0  0  0  0  0  0
   23.4372   31.6730   40.8917 C   0  0  1  0  0  0  0  0  0  0  0  0
   24.7343   31.7652   41.4718 O   0  0  0  0  0  0  0  0  0  0  0  0
   15.8286   34.4230   38.5273 C   0  0  2  0  0  0  0  0  0  0  0  0
   16.8393   33.3464   38.4292 O   0  0  0  0  0  0  0  0  0  0  0  0
   20.1625   33.6424   37.2713 C   0  0  2  0  0  0  0  0  0  0  0  0
   19.6651   32.6665   38.1845 O   0  0  0  0  0  0  0  0  0  0  0  0
   22.8168   33.0994   40.7434 C   0  0  0  0  0  0  0  0  0  0  0  0
   23.6237   33.9464   39.8325 O   0  0  0  0  0  0  0  0  0  0  0  0
   15.5205   34.6522   40.0349 C   0  0  2  0  0  0  0  0  0  0  0  0
   16.7209   35.0496   40.7066 O   0  0  0  0  0  0  0  0  0  0  0  0
   21.4911   34.1957   37.8432 C   0  0  1  0  0  0  0  0  0  0  0  0
   22.4371   33.0938   37.9187 O   0  0  0  0  0  0  0  0  0  0  0  0
   15.0045   33.4002   40.7094 C   0  0  0  0  0  0  0  0  0  0  0  0
   22.5655   30.8305   41.8240 C   0  0  0  0  0  0  0  0  0  0  0  0
   23.3032   28.7623   38.7924 C   0  0  0  0  0  0  0  0  0  0  0  0
  1  2  1  6  0  0  0
  1  6  1  0  0  0  0
  1 23  1  0  0  0  0
  3  4  1  1  0  0  0
  3  8  1  0  0  0  0
  3 30  1  0  0  0  0
  5  9  1  0  0  0  0
  5 27  1  0  0  0  0
  5 31  1  1  0  0  0
  6  7  1  6  0  0  0
  6 11  1  0  0  0  0
  8 13  1  0  0  0  0
  9 10  1  6  0  0  0
  9 15  1  0  0  0  0
 11 12  1  6  0  0  0
 11 17  1  0  0  0  0
 13 14  1  1  0  0  0
 13 19  1  0  0  0  0
 15 16  1  1  0  0  0
 15 20  1  0  0  0  0
 16 34  1  0  0  0  0
 17 18  1  6  0  0  0
 17 22  1  0  0  0  0
 19  2  1  6  0  0  0
 19 24  1  0  0  0  0
 20 21  1  1  0  0  0
 20 26  1  0  0  0  0
 20 33  1  0  0  0  0
 22 23  1  1  0  0  0
 22 28  1  0  0  0  0
 24 25  1  1  0  0  0
 24 30  1  0  0  0  0
 26 27  1  0  0  0  0
 28 29  1  1  0  0  0
 28 32  1  0  0  0  0
 30 31  1  6  0  0  0
M  END
>  <CHROM.1>
-176.33843202,169.85034966,-108.87687028,-176.86156431,66.55747561,173.64826082
19.77240597,33.39662374,38.20558539,2.78827283,0.04265109,-0.84870701

>  <Name>
ligand

>  <RI>
0

>  <Rbt.Current_Directory>
/home/itssahil/PROJECTS/Mol_Feturizer/New_Systems/rnas/4p3s

>  <Rbt.Executable>
rbdock ($Id: //depot/dev/client3/rdock/2013.1/src/exe/rbdock.cxx#4 $)

>  <Rbt.Library>
libRbt.so (2013.1, Build901 2013/11/27)

>  <Rbt.Parameter_File>
/export/apps/rDock/src/rDock_2013.1_src/data/scripts/dock_solv.prm

>  <Rbt.Receptor>
prm/pocket_docking_8.prm

>  <SCORE>
-9.28585

>  <SCORE.INTER>
-3.80698

>  <SCORE.INTER.CONST>
1

>  <SCORE.INTER.POLAR>
0

>  <SCORE.INTER.ROT>
6

>  <SCORE.INTER.SOLV>
13.233

>  <SCORE.INTER.VDW>
-14.549

>  <SCORE.INTER.norm>
-0.11197

>  <SCORE.INTRA>
-5.47887

>  <SCORE.INTRA.DIHEDRAL>
-13.5947

>  <SCORE.INTRA.DIHEDRAL.0>
15.8194

>  <SCORE.INTRA.POLAR>
0

>  <SCORE.INTRA.POLAR.0>
0

>  <SCORE.INTRA.REPUL>
0

>  <SCORE.INTRA.REPUL.0>
0

>  <SCORE.INTRA.SOLV>
-0.815226

>  <SCORE.INTRA.SOLV.lig_0>
-71.9159

>  <SCORE.INTRA.VDW>
1.7261

>  <SCORE.INTRA.VDW.0>
-3.53918

>  <SCORE.INTRA.norm>
-0.161143

>  <SCORE.RESTR>
0

>  <SCORE.RESTR.CAVITY>
0

>  <SCORE.RESTR.norm>
0

>  <SCORE.SYSTEM>
0

>  <SCORE.SYSTEM.CONST>
0

>  <SCORE.SYSTEM.DIHEDRAL>
0

>  <SCORE.SYSTEM.SOLV>
0

>  <SCORE.SYSTEM.norm>
0

>  <SCORE.heavy>
34

>  <SCORE.norm>
-0.273113

>  <RMSD>
7.355

$$$$
ligand
 OpenBabel01301917533D
libRbt.so/2013.1/901 2013/11/27
 34 36  0  0  0  0  0  0  0  0999 V2000
   17.0814   33.0013   36.7972 C   0  0  2  0  0  0  0  0  0  0  0  0
   17.6748   34.1792   36.2416 O   0  0  0  0  0  0  0  0  0  0  0  0
   21.7493   35.4787   36.5750 C   0  0  2  0  0  0  0  0  0  0  0  0
   22.9806   36.1044   37.0761 N   0  0  0  0  0  0  0  0  0  0  0  0
   23.6642   33.6329   38.0734 C   0  0  2  0  0  0  0  0  0  0  0  0
   15.7951   32.6592   35.9551 C   0  0  2  0  0  0  0  0  0  0  0  0
   16.1366   32.4413   34.5403 N   0  0  0  0  0  0  0  0  0  0  0  0
   20.6359   36.5864   36.5245 C   0  0  0  0  0  0  0  0  0  0  0  0
   24.4557   32.2675   38.1428 C   0  0  2  0  0  0  0  0  0  0  0  0
   24.5909   31.7106   36.8466 O   0  0  0  0  0  0  0  0  0  0  0  0
   14.7475   33.8062   36.0826 C   0  0  1  0  0  0  0  0  0  0  0  0
   13.5700   33.4976   35.3141 O   0  0  0  0  0  0  0  0  0  0  0  0
   19.3267   35.9216   35.9710 C   0  0  2  0  0  0  0  0  0  0  0  0
   18.2202   36.9181   35.9011 N   0  0  0  0  0  0  0  0  0  0  0  0
   23.6567   31.2840   39.0791 C   0  0  1  0  0  0  0  0  0  0  0  0
   24.3278   29.9708   39.1577 N   0  0  0  0  0  0  0  0  0  0  0  0
   14.4161   33.9997   37.5808 C   0  0  2  0  0  0  0  0  0  0  0  0
   13.4452   35.0419   37.7193 O   0  0  0  0  0  0  0  0  0  0  0  0
   18.8792   34.7367   36.8793 C   0  0  2  0  0  0  0  0  0  0  0  0
   23.5371   31.9195   40.5004 C   0  0  1  0  0  0  0  0  0  0  0  0
   24.8482   32.0894   41.0290 O   0  0  0  0  0  0  0  0  0  0  0  0
   15.7574   34.3436   38.3611 C   0  0  2  0  0  0  0  0  0  0  0  0
   16.7511   33.2593   38.1969 O   0  0  0  0  0  0  0  0  0  0  0  0
   20.0278   33.6948   36.9604 C   0  0  2  0  0  0  0  0  0  0  0  0
   19.6055   32.6387   37.8207 O   0  0  0  0  0  0  0  0  0  0  0  0
   22.8287   33.3066   40.3753 C   0  0  0  0  0  0  0  0  0  0  0  0
   23.5481   34.1966   39.4327 O   0  0  0  0  0  0  0  0  0  0  0  0
   15.5272   34.5530   39.8854 C   0  0  2  0  0  0  0  0  0  0  0  0
   14.5933   35.6209   40.0791 O   0  0  0  0  0  0  0  0  0  0  0  0
   21.3197   34.3063   37.5565 C   0  0  1  0  0  0  0  0  0  0  0  0
   22.3396   33.2698   37.5677 O   0  0  0  0  0  0  0  0  0  0  0  0
   16.8039   34.9163   40.6113 C   0  0  0  0  0  0  0  0  0  0  0  0
   22.7535   31.0303   41.4669 C   0  0  0  0  0  0  0  0  0  0  0  0
   23.3296   28.9386   38.7848 C   0  0  0  0  0  0  0  0  0  0  0  0
  1  2  1  6  0  0  0
  1  6  1  0  0  0  0
  1 23  1  0  0  0  0
  3  4  1  1  0  0  0
  3  8  1  0  0  0  0
  3 30  1  0  0  0  0
  5  9  1  0  0  0  0
  5 27  1  0  0  0  0
  5 31  1  1  0  0  0
  6  7  1  6  0  0  0
  6 11  1  0  0  0  0
  8 13  1  0  0  0  0
  9 10  1  6  0  0  0
  9 15  1  0  0  0  0
 11 12  1  6  0  0  0
 11 17  1  0  0  0  0
 13 14  1  1  0  0  0
 13 19  1  0  0  0  0
 15 16  1  1  0  0  0
 15 20  1  0  0  0  0
 16 34  1  0  0  0  0
 17 18  1  6  0  0  0
 17 22  1  0  0  0  0
 19  2  1  6  0  0  0
 19 24  1  0  0  0  0
 20 21  1  1  0  0  0
 20 26  1  0  0  0  0
 20 33  1  0  0  0  0
 22 23  1  1  0  0  0
 22 28  1  0  0  0  0
 24 25  1  1  0  0  0
 24 30  1  0  0  0  0
 26 27  1  0  0  0  0
 28 29  1  6  0  0  0
 28 32  1  0  0  0  0
 30 31  1  6  0  0  0
M  END
>  <CHROM.1>
178.13115165,175.41106192,-125.63589436,-58.93120513,63.55315317,172.30344030
19.66134610,33.55447557,37.93745156,2.81679768,0.04366458,-0.83012207

>  <Name>
ligand

>  <RI>
0

>  <Rbt.Current_Directory>
/home/itssahil/PROJECTS/Mol_Feturizer/New_Systems/rnas/4p3s

>  <Rbt.Executable>
rbdock ($Id: //depot/dev/client3/rdock/2013.1/src/exe/rbdock.cxx#4 $)

>  <Rbt.Library>
libRbt.so (2013.1, Build901 2013/11/27)

>  <Rbt.Parameter_File>
/export/apps/rDock/src/rDock_2013.1_src/data/scripts/dock_solv.prm

>  <Rbt.Receptor>
prm/pocket_docking_8.prm

>  <SCORE>
-9.58884

>  <SCORE.INTER>
-3.68487

>  <SCORE.INTER.CONST>
1

>  <SCORE.INTER.POLAR>
0

>  <SCORE.INTER.ROT>
6

>  <SCORE.INTER.SOLV>
15.132

>  <SCORE.INTER.VDW>
-15.1006

>  <SCORE.INTER.norm>
-0.108379

>  <SCORE.INTRA>
-5.90397

>  <SCORE.INTRA.DIHEDRAL>
-14.0531

>  <SCORE.INTRA.DIHEDRAL.0>
15.8194

>  <SCORE.INTRA.POLAR>
0

>  <SCORE.INTRA.POLAR.0>
0

>  <SCORE.INTRA.REPUL>
0

>  <SCORE.INTRA.REPUL.0>
0

>  <SCORE.INTRA.SOLV>
-0.369241

>  <SCORE.INTRA.SOLV.lig_0>
-71.9159

>  <SCORE.INTRA.VDW>
1.30722

>  <SCORE.INTRA.VDW.0>
-3.53918

>  <SCORE.INTRA.norm>
-0.173646

>  <SCORE.RESTR>
0

>  <SCORE.RESTR.CAVITY>
0

>  <SCORE.RESTR.norm>
0

>  <SCORE.SYSTEM>
0

>  <SCORE.SYSTEM.CONST>
0

>  <SCORE.SYSTEM.DIHEDRAL>
0

>  <SCORE.SYSTEM.SOLV>
0

>  <SCORE.SYSTEM.norm>
0

>  <SCORE.heavy>
34

>  <SCORE.norm>
-0.282025

>  <RMSD>
7.375

$$$$
ligand
 OpenBabel01301917533D
libRbt.so/2013.1/901 2013/11/27
 34 36  0  0  0  0  0  0  0  0999 V2000
   22.8768   30.1438   38.9249 C   0  0  2  0  0  0  0  0  0  0  0  0
   23.4430   30.2103   37.6122 O   0  0  0  0  0  0  0  0  0  0  0  0
   20.3085   32.5367   35.8333 C   0  0  2  0  0  0  0  0  0  0  0  0
   19.5295   33.3315   34.8741 N   0  0  0  0  0  0  0  0  0  0  0  0
   18.6567   30.0983   33.8508 C   0  0  2  0  0  0  0  0  0  0  0  0
   23.9536   29.5190   39.8897 C   0  0  2  0  0  0  0  0  0  0  0  0
   25.1810   30.3310   39.9026 N   0  0  0  0  0  0  0  0  0  0  0  0
   21.7200   33.2116   35.9794 C   0  0  0  0  0  0  0  0  0  0  0  0
   17.1443   29.6968   34.0674 C   0  0  2  0  0  0  0  0  0  0  0  0
   16.4107   30.7978   34.5755 O   0  0  0  0  0  0  0  0  0  0  0  0
   24.2823   28.0586   39.4558 C   0  0  1  0  0  0  0  0  0  0  0  0
   25.2665   27.4836   40.3351 O   0  0  0  0  0  0  0  0  0  0  0  0
   22.5442   32.3731   37.0186 C   0  0  2  0  0  0  0  0  0  0  0  0
   23.9040   32.9554   37.2037 N   0  0  0  0  0  0  0  0  0  0  0  0
   17.0964   28.4933   35.0829 C   0  0  1  0  0  0  0  0  0  0  0  0
   15.7021   28.0916   35.3575 N   0  0  0  0  0  0  0  0  0  0  0  0
   22.9690   27.2418   39.4583 C   0  0  2  0  0  0  0  0  0  0  0  0
   23.2509   25.8924   39.0739 O   0  0  0  0  0  0  0  0  0  0  0  0
   22.6906   30.8946   36.5474 C   0  0  2  0  0  0  0  0  0  0  0  0
   17.9009   27.2941   34.4887 C   0  0  1  0  0  0  0  0  0  0  0  0
   17.2767   26.8918   33.2738 O   0  0  0  0  0  0  0  0  0  0  0  0
   21.9374   27.9291   38.4635 C   0  0  2  0  0  0  0  0  0  0  0  0
   21.6675   29.3256   38.8719 O   0  0  0  0  0  0  0  0  0  0  0  0
   21.2780   30.2809   36.3489 C   0  0  2  0  0  0  0  0  0  0  0  0
   21.4400   28.9409   35.8885 O   0  0  0  0  0  0  0  0  0  0  0  0
   19.3658   27.7589   34.2071 C   0  0  0  0  0  0  0  0  0  0  0  0
   19.3943   28.9394   33.3107 O   0  0  0  0  0  0  0  0  0  0  0  0
   20.5759   27.1791   38.3995 C   0  0  2  0  0  0  0  0  0  0  0  0
   20.1815   26.8034   39.7237 O   0  0  0  0  0  0  0  0  0  0  0  0
   20.4582   31.0533   35.2860 C   0  0  1  0  0  0  0  0  0  0  0  0
   19.1500   30.4256   35.1893 O   0  0  0  0  0  0  0  0  0  0  0  0
   20.6559   25.9199   37.5649 C   0  0  0  0  0  0  0  0  0  0  0  0
   17.9186   26.0878   35.4286 C   0  0  0  0  0  0  0  0  0  0  0  0
   15.3678   28.5541   36.7269 C   0  0  0  0  0  0  0  0  0  0  0  0
  1  2  1  6  0  0  0
  1  6  1  0  0  0  0
  1 23  1  0  0  0  0
  3  4  1  6  0  0  0
  3  8  1  0  0  0  0
  3 30  1  0  0  0  0
  5  9  1  0  0  0  0
  5 27  1  0  0  0  0
  5 31  1  1  0  0  0
  6  7  1  6  0  0  0
  6 11  1  0  0  0  0
  8 13  1  0  0  0  0
  9 10  1  1  0  0  0
  9 15  1  0  0  0  0
 11 12  1  1  0  0  0
 11 17  1  0  0  0  0
 13 14  1  6  0  0  0
 13 19  1  0  0  0  0
 15 16  1  6  0  0  0
 15 20  1  0  0  0  0
 16 34  1  0  0  0  0
 17 18  1  6  0  0  0
 17 22  1  0  0  0  0
 19  2  1  1  0  0  0
 19 24  1  0  0  0  0
 20 21  1  6  0  0  0
 20 26  1  0  0  0  0
 20 33  1  0  0  0  0
 22 23  1  1  0  0  0
 22 28  1  0  0  0  0
 24 25  1  6  0  0  0
 24 30  1  0  0  0  0
 26 27  1  0  0  0  0
 28 29  1  1  0  0  0
 28 32  1  0  0  0  0
 30 31  1  1  0  0  0
M  END
>  <CHROM.1>
-173.36151130,61.61728772,-106.74895471,42.68387236,113.67511072,-169.75452766
20.61525283,29.20974269,36.71387986,-0.21950125,-0.58847295,-0.41269809

>  <Name>
ligand

>  <RI>
0

>  <Rbt.Current_Directory>
/home/itssahil/PROJECTS/Mol_Feturizer/New_Systems/rnas/4p3s

>  <Rbt.Executable>
rbdock ($Id: //depot/dev/client3/rdock/2013.1/src/exe/rbdock.cxx#4 $)

>  <Rbt.Library>
libRbt.so (2013.1, Build901 2013/11/27)

>  <Rbt.Parameter_File>
/export/apps/rDock/src/rDock_2013.1_src/data/scripts/dock_solv.prm

>  <Rbt.Receptor>
prm/pocket_docking_4.prm

>  <SCORE>
-5.38136

>  <SCORE.INTER>
-2.76292

>  <SCORE.INTER.CONST>
1

>  <SCORE.INTER.POLAR>
0

>  <SCORE.INTER.ROT>
6

>  <SCORE.INTER.SOLV>
14.7535

>  <SCORE.INTER.VDW>
-14.3598

>  <SCORE.INTER.norm>
-0.0812623

>  <SCORE.INTRA>
-2.61844

>  <SCORE.INTRA.DIHEDRAL>
-6.03528

>  <SCORE.INTRA.DIHEDRAL.0>
15.8194

>  <SCORE.INTRA.POLAR>
0

>  <SCORE.INTRA.POLAR.0>
0

>  <SCORE.INTRA.REPUL>
0

>  <SCORE.INTRA.REPUL.0>
0

>  <SCORE.INTRA.SOLV>
0.430597

>  <SCORE.INTRA.SOLV.lig_0>
-71.9159

>  <SCORE.INTRA.VDW>
0.183902

>  <SCORE.INTRA.VDW.0>
-3.53918

>  <SCORE.INTRA.norm>
-0.0770129

>  <SCORE.RESTR>
0

>  <SCORE.RESTR.CAVITY>
0

>  <SCORE.RESTR.norm>
0

>  <SCORE.SYSTEM>
0

>  <SCORE.SYSTEM.CONST>
0

>  <SCORE.SYSTEM.DIHEDRAL>
0

>  <SCORE.SYSTEM.SOLV>
0

>  <SCORE.SYSTEM.norm>
0

>  <SCORE.heavy>
34

>  <SCORE.norm>
-0.158275

>  <RMSD>
7.479

$$$$
ligand
 OpenBabel01301917533D
libRbt.so/2013.1/901 2013/11/27
 34 36  0  0  0  0  0  0  0  0999 V2000
   15.1467   23.7794   34.0745 C   0  0  2  0  0  0  0  0  0  0  0  0
   15.5794   24.9087   33.3093 O   0  0  0  0  0  0  0  0  0  0  0  0
   18.2152   26.7379   36.1568 C   0  0  2  0  0  0  0  0  0  0  0  0
   19.0639   27.7185   36.8474 N   0  0  0  0  0  0  0  0  0  0  0  0
   16.7106   28.3887   38.4136 C   0  0  2  0  0  0  0  0  0  0  0  0
   16.1089   22.5745   33.7530 C   0  0  2  0  0  0  0  0  0  0  0  0
   17.5024   22.9129   34.0838 N   0  0  0  0  0  0  0  0  0  0  0  0
   18.7084   26.6428   34.6679 C   0  0  0  0  0  0  0  0  0  0  0  0
   16.3272   27.9830   39.8913 C   0  0  2  0  0  0  0  0  0  0  0  0
   17.0176   26.8058   40.2734 O   0  0  0  0  0  0  0  0  0  0  0  0
   15.9958   22.1818   32.2490 C   0  0  1  0  0  0  0  0  0  0  0  0
   16.8739   21.0808   31.9507 O   0  0  0  0  0  0  0  0  0  0  0  0
   17.8139   25.5812   33.9363 C   0  0  2  0  0  0  0  0  0  0  0  0
   18.2235   25.4422   32.5096 N   0  0  0  0  0  0  0  0  0  0  0  0
   14.7707   27.7456   39.9471 C   0  0  1  0  0  0  0  0  0  0  0  0
   14.3504   27.3263   41.2993 N   0  0  0  0  0  0  0  0  0  0  0  0
   14.5199   21.8324   31.9458 C   0  0  2  0  0  0  0  0  0  0  0  0
   14.3961   21.4567   30.5705 O   0  0  0  0  0  0  0  0  0  0  0  0
   16.3109   25.9903   33.9900 C   0  0  2  0  0  0  0  0  0  0  0  0
   14.0403   29.0627   39.5346 C   0  0  1  0  0  0  0  0  0  0  0  0
   14.3813   30.0787   40.4721 O   0  0  0  0  0  0  0  0  0  0  0  0
   13.6148   23.0925   32.2908 C   0  0  2  0  0  0  0  0  0  0  0  0
   13.7650   23.4712   33.7135 O   0  0  0  0  0  0  0  0  0  0  0  0
   15.8764   26.1405   35.4732 C   0  0  2  0  0  0  0  0  0  0  0  0
   14.5090   26.5450   35.4935 O   0  0  0  0  0  0  0  0  0  0  0  0
   14.5141   29.4762   38.1042 C   0  0  0  0  0  0  0  0  0  0  0  0
   15.9883   29.6223   38.0456 O   0  0  0  0  0  0  0  0  0  0  0  0
   12.1039   22.8369   32.0220 C   0  0  2  0  0  0  0  0  0  0  0  0
   11.4026   24.0849   32.0468 O   0  0  0  0  0  0  0  0  0  0  0  0
   16.7038   27.2229   36.2094 C   0  0  1  0  0  0  0  0  0  0  0  0
   16.2462   27.2723   37.5889 O   0  0  0  0  0  0  0  0  0  0  0  0
   11.4825   21.9351   33.0657 C   0  0  0  0  0  0  0  0  0  0  0  0
   12.5189   28.9072   39.5445 C   0  0  0  0  0  0  0  0  0  0  0  0
   14.0515   25.8744   41.2415 C   0  0  0  0  0  0  0  0  0  0  0  0
  1  2  1  6  0  0  0
  1  6  1  0  0  0  0
  1 23  1  0  0  0  0
  3  4  1  1  0  0  0
  3  8  1  0  0  0  0
  3 30  1  0  0  0  0
  5  9  1  0  0  0  0
  5 27  1  0  0  0  0
  5 31  1  6  0  0  0
  6  7  1  6  0  0  0
  6 11  1  0  0  0  0
  8 13  1  0  0  0  0
  9 10  1  6  0  0  0
  9 15  1  0  0  0  0
 11 12  1  1  0  0  0
 11 17  1  0  0  0  0
 13 14  1  6  0  0  0
 13 19  1  0  0  0  0
 15 16  1  1  0  0  0
 15 20  1  0  0  0  0
 16 34  1  0  0  0  0
 17 18  1  6  0  0  0
 17 22  1  0  0  0  0
 19  2  1  1  0  0  0
 19 24  1  0  0  0  0
 20 21  1  1  0  0  0
 20 26  1  0  0  0  0
 20 33  1  0  0  0  0
 22 23  1  1  0  0  0
 22 28  1  0  0  0  0
 24 25  1  6  0  0  0
 24 30  1  0  0  0  0
 26 27  1  0  0  0  0
 28 29  1  1  0  0  0
 28 32  1  0  0  0  0
 30 31  1  1  0  0  0
M  END
>  <CHROM.1>
-104.12915968,88.12472997,-105.50986243,-166.39892102,75.59615831,-167.45271964
15.39887466,25.66283988,35.72984341,1.63949321,-0.20231883,-2.22342507

>  <Name>
ligand

>  <RI>
0

>  <Rbt.Current_Directory>
/home/itssahil/PROJECTS/Mol_Feturizer/New_Systems/rnas/4p3s

>  <Rbt.Executable>
rbdock ($Id: //depot/dev/client3/rdock/2013.1/src/exe/rbdock.cxx#4 $)

>  <Rbt.Library>
libRbt.so (2013.1, Build901 2013/11/27)

>  <Rbt.Parameter_File>
/export/apps/rDock/src/rDock_2013.1_src/data/scripts/dock_solv.prm

>  <Rbt.Receptor>
prm/pocket_docking_8.prm

>  <SCORE>
-11.5619

>  <SCORE.INTER>
-13.7568

>  <SCORE.INTER.CONST>
1

>  <SCORE.INTER.POLAR>
0

>  <SCORE.INTER.ROT>
6

>  <SCORE.INTER.SOLV>
17.0191

>  <SCORE.INTER.VDW>
-22.4442

>  <SCORE.INTER.norm>
-0.404611

>  <SCORE.INTRA>
2.19487

>  <SCORE.INTRA.DIHEDRAL>
-2.87155

>  <SCORE.INTRA.DIHEDRAL.0>
15.8194

>  <SCORE.INTRA.POLAR>
0

>  <SCORE.INTRA.POLAR.0>
0

>  <SCORE.INTRA.REPUL>
0

>  <SCORE.INTRA.REPUL.0>
0

>  <SCORE.INTRA.SOLV>
3.77277

>  <SCORE.INTRA.SOLV.lig_0>
-71.9159

>  <SCORE.INTRA.VDW>
1.74426

>  <SCORE.INTRA.VDW.0>
-3.53918

>  <SCORE.INTRA.norm>
0.0645551

>  <SCORE.RESTR>
0

>  <SCORE.RESTR.CAVITY>
0

>  <SCORE.RESTR.norm>
0

>  <SCORE.SYSTEM>
0

>  <SCORE.SYSTEM.CONST>
0

>  <SCORE.SYSTEM.DIHEDRAL>
0

>  <SCORE.SYSTEM.SOLV>
0

>  <SCORE.SYSTEM.norm>
0

>  <SCORE.heavy>
34

>  <SCORE.norm>
-0.340056

>  <RMSD>
7.578

$$$$
ligand
 OpenBabel01301917533D
libRbt.so/2013.1/901 2013/11/27
 34 36  0  0  0  0  0  0  0  0999 V2000
   21.9480   32.3235   34.7939 C   0  0  2  0  0  0  0  0  0  0  0  0
   21.0650   33.3396   35.2797 O   0  0  0  0  0  0  0  0  0  0  0  0
   18.0210   33.1360   38.2954 C   0  0  2  0  0  0  0  0  0  0  0  0
   16.7474   32.8783   38.9810 N   0  0  0  0  0  0  0  0  0  0  0  0
   17.9155   30.3135   39.7878 C   0  0  2  0  0  0  0  0  0  0  0  0
   23.2823   33.0186   34.3278 C   0  0  2  0  0  0  0  0  0  0  0  0
   23.9085   33.7516   35.4398 N   0  0  0  0  0  0  0  0  0  0  0  0
   17.7081   33.9739   37.0035 C   0  0  0  0  0  0  0  0  0  0  0  0
   18.5595   29.7229   41.1038 C   0  0  2  0  0  0  0  0  0  0  0  0
   19.0318   30.7704   41.9335 O   0  0  0  0  0  0  0  0  0  0  0  0
   22.9982   33.9874   33.1405 C   0  0  1  0  0  0  0  0  0  0  0  0
   24.2153   34.6252   32.7113 O   0  0  0  0  0  0  0  0  0  0  0  0
   19.0709   34.2651   36.2823 C   0  0  2  0  0  0  0  0  0  0  0  0
   18.8488   35.0557   35.0381 N   0  0  0  0  0  0  0  0  0  0  0  0
   19.7493   28.7780   40.6868 C   0  0  1  0  0  0  0  0  0  0  0  0
   20.4201   28.2196   41.8780 N   0  0  0  0  0  0  0  0  0  0  0  0
   22.3445   33.1779   31.9962 C   0  0  2  0  0  0  0  0  0  0  0  0
   22.0861   34.0478   30.8896 O   0  0  0  0  0  0  0  0  0  0  0  0
   19.7970   32.9369   35.9107 C   0  0  2  0  0  0  0  0  0  0  0  0
   19.1947   27.6292   39.7863 C   0  0  1  0  0  0  0  0  0  0  0  0
   18.2569   26.8745   40.5468 O   0  0  0  0  0  0  0  0  0  0  0  0
   21.0079   32.5117   32.5399 C   0  0  2  0  0  0  0  0  0  0  0  0
   21.2949   31.6249   33.6894 O   0  0  0  0  0  0  0  0  0  0  0  0
   20.0296   32.1051   37.2012 C   0  0  2  0  0  0  0  0  0  0  0  0
   20.6656   30.8838   36.8302 O   0  0  0  0  0  0  0  0  0  0  0  0
   18.4891   28.2586   38.5423 C   0  0  0  0  0  0  0  0  0  0  0  0
   17.4218   29.2040   38.9486 O   0  0  0  0  0  0  0  0  0  0  0  0
   20.2755   31.6677   31.4574 C   0  0  2  0  0  0  0  0  0  0  0  0
   19.0795   31.1159   32.0188 O   0  0  0  0  0  0  0  0  0  0  0  0
   18.6972   31.7524   37.9075 C   0  0  1  0  0  0  0  0  0  0  0  0
   19.0160   31.0011   39.1111 O   0  0  0  0  0  0  0  0  0  0  0  0
   21.1247   30.5202   30.9565 C   0  0  0  0  0  0  0  0  0  0  0  0
   20.2967   26.6761   39.3215 C   0  0  0  0  0  0  0  0  0  0  0  0
   21.7203   28.9188   42.0246 C   0  0  0  0  0  0  0  0  0  0  0  0
  1  2  1  6  0  0  0
  1  6  1  0  0  0  0
  1 23  1  0  0  0  0
  3  4  1  6  0  0  0
  3  8  1  0  0  0  0
  3 30  1  0  0  0  0
  5  9  1  0  0  0  0
  5 27  1  0  0  0  0
  5 31  1  6  0  0  0
  6  7  1  1  0  0  0
  6 11  1  0  0  0  0
  8 13  1  0  0  0  0
  9 10  1  1  0  0  0
  9 15  1  0  0  0  0
 11 12  1  6  0  0  0
 11 17  1  0  0  0  0
 13 14  1  6  0  0  0
 13 19  1  0  0  0  0
 15 16  1  1  0  0  0
 15 20  1  0  0  0  0
 16 34  1  0  0  0  0
 17 18  1  6  0  0  0
 17 22  1  0  0  0  0
 19  2  1  1  0  0  0
 19 24  1  0  0  0  0
 20 21  1  1  0  0  0
 20 26  1  0  0  0  0
 20 33  1  0  0  0  0
 22 23  1  1  0  0  0
 22 28  1  0  0  0  0
 24 25  1  6  0  0  0
 24 30  1  0  0  0  0
 26 27  1  0  0  0  0
 28 29  1  1  0  0  0
 28 32  1  0  0  0  0
 30 31  1  1  0  0  0
M  END
>  <CHROM.1>
-173.57636883,-178.45162221,-106.03253312,-179.37104392,77.47171777,-174.80481654
20.13531429,31.41807686,36.64668307,-1.06703495,-0.90363492,2.46681254

>  <Name>
ligand

>  <RI>
0

>  <Rbt.Current_Directory>
/home/itssahil/PROJECTS/Mol_Feturizer/New_Systems/rnas/4p3s

>  <Rbt.Executable>
rbdock ($Id: //depot/dev/client3/rdock/2013.1/src/exe/rbdock.cxx#4 $)

>  <Rbt.Library>
libRbt.so (2013.1, Build901 2013/11/27)

>  <Rbt.Parameter_File>
/export/apps/rDock/src/rDock_2013.1_src/data/scripts/dock_solv.prm

>  <Rbt.Receptor>
prm/pocket_docking_6.prm

>  <SCORE>
-4.90964

>  <SCORE.INTER>
1.33185

>  <SCORE.INTER.CONST>
1

>  <SCORE.INTER.POLAR>
0

>  <SCORE.INTER.ROT>
6

>  <SCORE.INTER.SOLV>
8.86177

>  <SCORE.INTER.VDW>
-9.66602

>  <SCORE.INTER.norm>
0.0391722

>  <SCORE.INTRA>
-6.24149

>  <SCORE.INTRA.DIHEDRAL>
-12.9297

>  <SCORE.INTRA.DIHEDRAL.0>
15.8194

>  <SCORE.INTRA.POLAR>
0

>  <SCORE.INTRA.POLAR.0>
0

>  <SCORE.INTRA.REPUL>
0

>  <SCORE.INTRA.REPUL.0>
0

>  <SCORE.INTRA.SOLV>
-1.16585

>  <SCORE.INTRA.SOLV.lig_0>
-71.9159

>  <SCORE.INTRA.VDW>
0.806308

>  <SCORE.INTRA.VDW.0>
-3.53918

>  <SCORE.INTRA.norm>
-0.183573

>  <SCORE.RESTR>
0

>  <SCORE.RESTR.CAVITY>
0

>  <SCORE.RESTR.norm>
0

>  <SCORE.SYSTEM>
0

>  <SCORE.SYSTEM.CONST>
0

>  <SCORE.SYSTEM.DIHEDRAL>
0

>  <SCORE.SYSTEM.SOLV>
0

>  <SCORE.SYSTEM.norm>
0

>  <SCORE.heavy>
34

>  <SCORE.norm>
-0.144401

>  <RMSD>
7.583

$$$$
ligand
 OpenBabel01301917533D
libRbt.so/2013.1/901 2013/11/27
 34 36  0  0  0  0  0  0  0  0999 V2000
   23.5753   30.5088   37.2970 C   0  0  2  0  0  0  0  0  0  0  0  0
   22.7639   30.3215   38.4609 O   0  0  0  0  0  0  0  0  0  0  0  0
   21.1514   26.5049   37.3491 C   0  0  2  0  0  0  0  0  0  0  0  0
   20.5233   25.1786   37.4191 N   0  0  0  0  0  0  0  0  0  0  0  0
   19.2737   28.1419   35.4481 C   0  0  2  0  0  0  0  0  0  0  0  0
   24.1237   31.9851   37.3169 C   0  0  2  0  0  0  0  0  0  0  0  0
   24.9107   32.2363   38.5350 N   0  0  0  0  0  0  0  0  0  0  0  0
   22.3555   26.5181   38.3587 C   0  0  0  0  0  0  0  0  0  0  0  0
   17.8799   28.1151   34.7051 C   0  0  2  0  0  0  0  0  0  0  0  0
   16.9585   28.9728   35.3562 O   0  0  0  0  0  0  0  0  0  0  0  0
   22.9438   32.9990   37.2233 C   0  0  1  0  0  0  0  0  0  0  0  0
   23.4407   34.3499   37.2414 O   0  0  0  0  0  0  0  0  0  0  0  0
   23.0375   27.9284   38.2690 C   0  0  2  0  0  0  0  0  0  0  0  0
   24.1909   28.0154   39.2095 N   0  0  0  0  0  0  0  0  0  0  0  0
   17.3468   26.6325   34.7150 C   0  0  1  0  0  0  0  0  0  0  0  0
   16.0238   26.5447   34.0646 N   0  0  0  0  0  0  0  0  0  0  0  0
   22.1468   32.7019   35.9315 C   0  0  2  0  0  0  0  0  0  0  0  0
   21.0641   33.6310   35.8198 O   0  0  0  0  0  0  0  0  0  0  0  0
   22.0216   29.0590   38.6141 C   0  0  2  0  0  0  0  0  0  0  0  0
   18.3761   25.7170   33.9797 C   0  0  1  0  0  0  0  0  0  0  0  0
   18.4832   26.1550   32.6291 O   0  0  0  0  0  0  0  0  0  0  0  0
   21.6255   31.2014   35.9859 C   0  0  2  0  0  0  0  0  0  0  0  0
   22.7586   30.2578   36.1118 O   0  0  0  0  0  0  0  0  0  0  0  0
   20.8146   28.9739   37.6407 C   0  0  2  0  0  0  0  0  0  0  0  0
   19.8873   29.9971   37.9973 O   0  0  0  0  0  0  0  0  0  0  0  0
   19.7612   25.8412   34.6919 C   0  0  0  0  0  0  0  0  0  0  0  0
   20.2167   27.2511   34.7438 O   0  0  0  0  0  0  0  0  0  0  0  0
   20.8114   30.8035   34.7213 C   0  0  2  0  0  0  0  0  0  0  0  0
   21.4136   31.3979   33.5662 O   0  0  0  0  0  0  0  0  0  0  0  0
   20.0843   27.6123   37.7458 C   0  0  1  0  0  0  0  0  0  0  0  0
   18.9929   27.6165   36.7849 O   0  0  0  0  0  0  0  0  0  0  0  0
   19.3769   31.2784   34.7925 C   0  0  0  0  0  0  0  0  0  0  0  0
   17.9383   24.2518   33.9641 C   0  0  0  0  0  0  0  0  0  0  0  0
   15.0795   25.9698   35.0538 C   0  0  0  0  0  0  0  0  0  0  0  0
  1  2  1  1  0  0  0
  1  6  1  0  0  0  0
  1 23  1  0  0  0  0
  3  4  1  1  0  0  0
  3  8  1  0  0  0  0
  3 30  1  0  0  0  0
  5  9  1  0  0  0  0
  5 27  1  0  0  0  0
  5 31  1  1  0  0  0
  6  7  1  1  0  0  0
  6 11  1  0  0  0  0
  8 13  1  0  0  0  0
  9 10  1  1  0  0  0
  9 15  1  0  0  0  0
 11 12  1  6  0  0  0
 11 17  1  0  0  0  0
 13 14  1  1  0  0  0
 13 19  1  0  0  0  0
 15 16  1  6  0  0  0
 15 20  1  0  0  0  0
 16 34  1  0  0  0  0
 17 18  1  1  0  0  0
 17 22  1  0  0  0  0
 19  2  1  6  0  0  0
 19 24  1  0  0  0  0
 20 21  1  6  0  0  0
 20 26  1  0  0  0  0
 20 33  1  0  0  0  0
 22 23  1  6  0  0  0
 22 28  1  0  0  0  0
 24 25  1  1  0  0  0
 24 30  1  0  0  0  0
 26 27  1  0  0  0  0
 28 29  1  6  0  0  0
 28 32  1  0  0  0  0
 30 31  1  6  0  0  0
M  END
>  <CHROM.1>
174.09965382,46.06172998,-122.38524501,38.22549987,-71.55874121,-175.57698340
20.59947742,28.98945523,36.20018347,-0.58032508,0.67309888,2.82223899

>  <Name>
ligand

>  <RI>
0

>  <Rbt.Current_Directory>
/home/itssahil/PROJECTS/Mol_Feturizer/New_Systems/rnas/4p3s

>  <Rbt.Executable>
rbdock ($Id: //depot/dev/client3/rdock/2013.1/src/exe/rbdock.cxx#4 $)

>  <Rbt.Library>
libRbt.so (2013.1, Build901 2013/11/27)

>  <Rbt.Parameter_File>
/export/apps/rDock/src/rDock_2013.1_src/data/scripts/dock_solv.prm

>  <Rbt.Receptor>
prm/pocket_docking_2.prm

>  <SCORE>
-5.6486

>  <SCORE.INTER>
-5.61502

>  <SCORE.INTER.CONST>
1

>  <SCORE.INTER.POLAR>
0

>  <SCORE.INTER.ROT>
6

>  <SCORE.INTER.SOLV>
22.1365

>  <SCORE.INTER.VDW>
-18.7222

>  <SCORE.INTER.norm>
-0.165148

>  <SCORE.INTRA>
-1.99643

>  <SCORE.INTRA.DIHEDRAL>
-11.1633

>  <SCORE.INTRA.DIHEDRAL.0>
15.8194

>  <SCORE.INTRA.POLAR>
0

>  <SCORE.INTRA.POLAR.0>
0

>  <SCORE.INTRA.REPUL>
0.0222367

>  <SCORE.INTRA.REPUL.0>
0

>  <SCORE.INTRA.SOLV>
2.53264

>  <SCORE.INTRA.SOLV.lig_0>
-71.9159

>  <SCORE.INTRA.VDW>
2.2077

>  <SCORE.INTRA.VDW.0>
-3.53918

>  <SCORE.INTRA.norm>
-0.0587186

>  <SCORE.RESTR>
1.96285

>  <SCORE.RESTR.CAVITY>
1.96285

>  <SCORE.RESTR.norm>
0.057731

>  <SCORE.SYSTEM>
0

>  <SCORE.SYSTEM.CONST>
0

>  <SCORE.SYSTEM.DIHEDRAL>
0

>  <SCORE.SYSTEM.SOLV>
0

>  <SCORE.SYSTEM.norm>
0

>  <SCORE.heavy>
34

>  <SCORE.norm>
-0.166135

>  <RMSD>
7.636

$$$$
ligand
 OpenBabel01301917533D
libRbt.so/2013.1/901 2013/11/27
 34 36  0  0  0  0  0  0  0  0999 V2000
   22.3659   32.8427   37.2924 C   0  0  2  0  0  0  0  0  0  0  0  0
   21.1961   32.0205   37.2315 O   0  0  0  0  0  0  0  0  0  0  0  0
   20.4278   27.8230   37.6713 C   0  0  2  0  0  0  0  0  0  0  0  0
   20.4319   26.3705   37.4510 N   0  0  0  0  0  0  0  0  0  0  0  0
   22.4443   26.2314   39.3442 C   0  0  2  0  0  0  0  0  0  0  0  0
   22.0014   34.1517   38.0888 C   0  0  2  0  0  0  0  0  0  0  0  0
   21.5329   33.8272   39.4457 N   0  0  0  0  0  0  0  0  0  0  0  0
   19.9694   28.5087   36.3338 C   0  0  0  0  0  0  0  0  0  0  0  0
   22.6290   25.8714   40.8711 C   0  0  2  0  0  0  0  0  0  0  0  0
   21.4699   26.2276   41.6046 O   0  0  0  0  0  0  0  0  0  0  0  0
   20.9099   34.9603   37.3246 C   0  0  1  0  0  0  0  0  0  0  0  0
   20.5735   36.1578   38.0493 O   0  0  0  0  0  0  0  0  0  0  0  0
   19.9467   30.0589   36.5761 C   0  0  2  0  0  0  0  0  0  0  0  0
   19.5242   30.7780   35.3404 N   0  0  0  0  0  0  0  0  0  0  0  0
   23.8816   26.6586   41.4131 C   0  0  1  0  0  0  0  0  0  0  0  0
   24.0884   26.3929   42.8509 N   0  0  0  0  0  0  0  0  0  0  0  0
   21.4429   35.2815   35.9087 C   0  0  2  0  0  0  0  0  0  0  0  0
   20.4592   36.0354   35.1932 O   0  0  0  0  0  0  0  0  0  0  0  0
   21.3548   30.5748   37.0010 C   0  0  2  0  0  0  0  0  0  0  0  0
   25.1420   26.2343   40.5948 C   0  0  1  0  0  0  0  0  0  0  0  0
   25.3580   24.8408   40.7918 O   0  0  0  0  0  0  0  0  0  0  0  0
   21.7846   33.9168   35.1691 C   0  0  2  0  0  0  0  0  0  0  0  0
   22.7949   33.1480   35.9296 O   0  0  0  0  0  0  0  0  0  0  0  0
   21.8044   29.8284   38.2864 C   0  0  2  0  0  0  0  0  0  0  0  0
   23.1060   30.2952   38.6351 O   0  0  0  0  0  0  0  0  0  0  0  0
   24.8831   26.5251   39.0816 C   0  0  0  0  0  0  0  0  0  0  0  0
   23.6589   25.8397   38.6024 O   0  0  0  0  0  0  0  0  0  0  0  0
   22.3353   34.1360   33.7307 C   0  0  2  0  0  0  0  0  0  0  0  0
   21.4650   35.0259   33.0229 O   0  0  0  0  0  0  0  0  0  0  0  0
   21.8915   28.2983   38.0636 C   0  0  1  0  0  0  0  0  0  0  0  0
   22.2916   27.6868   39.3209 O   0  0  0  0  0  0  0  0  0  0  0  0
   22.4154   32.8448   32.9466 C   0  0  0  0  0  0  0  0  0  0  0  0
   26.4017   26.9729   41.0494 C   0  0  0  0  0  0  0  0  0  0  0  0
   23.6527   27.6011   43.5934 C   0  0  0  0  0  0  0  0  0  0  0  0
  1  2  1  6  0  0  0
  1  6  1  0  0  0  0
  1 23  1  0  0  0  0
  3  4  1  6  0  0  0
  3  8  1  0  0  0  0
  3 30  1  0  0  0  0
  5  9  1  0  0  0  0
  5 27  1  0  0  0  0
  5 31  1  1  0  0  0
  6  7  1  1  0  0  0
  6 11  1  0  0  0  0
  8 13  1  0  0  0  0
  9 10  1  1  0  0  0
  9 15  1  0  0  0  0
 11 12  1  1  0  0  0
 11 17  1  0  0  0  0
 13 14  1  6  0  0  0
 13 19  1  0  0  0  0
 15 16  1  1  0  0  0
 15 20  1  0  0  0  0
 16 34  1  0  0  0  0
 17 18  1  6  0  0  0
 17 22  1  0  0  0  0
 19  2  1  1  0  0  0
 19 24  1  0  0  0  0
 20 21  1  1  0  0  0
 20 26  1  0  0  0  0
 20 33  1  0  0  0  0
 22 23  1  1  0  0  0
 22 28  1  0  0  0  0
 24 25  1  6  0  0  0
 24 30  1  0  0  0  0
 26 27  1  0  0  0  0
 28 29  1  6  0  0  0
 28 32  1  0  0  0  0
 30 31  1  1  0  0  0
M  END
>  <CHROM.1>
-157.71269301,-163.80040823,-105.54274991,-49.89924875,64.84707129,-170.49212145
22.23747838,30.13304682,38.05341148,-2.19270516,1.14368428,-3.13865103

>  <Name>
ligand

>  <RI>
0

>  <Rbt.Current_Directory>
/home/itssahil/PROJECTS/Mol_Feturizer/New_Systems/rnas/4p3s

>  <Rbt.Executable>
rbdock ($Id: //depot/dev/client3/rdock/2013.1/src/exe/rbdock.cxx#4 $)

>  <Rbt.Library>
libRbt.so (2013.1, Build901 2013/11/27)

>  <Rbt.Parameter_File>
/export/apps/rDock/src/rDock_2013.1_src/data/scripts/dock_solv.prm

>  <Rbt.Receptor>
prm/pocket_docking_7.prm

>  <SCORE>
-4.99707

>  <SCORE.INTER>
-0.636395

>  <SCORE.INTER.CONST>
1

>  <SCORE.INTER.POLAR>
0

>  <SCORE.INTER.ROT>
6

>  <SCORE.INTER.SOLV>
8.25411

>  <SCORE.INTER.VDW>
-10.7756

>  <SCORE.INTER.norm>
-0.0187175

>  <SCORE.INTRA>
-4.36067

>  <SCORE.INTRA.DIHEDRAL>
-10.334

>  <SCORE.INTRA.DIHEDRAL.0>
15.8194

>  <SCORE.INTRA.POLAR>
0

>  <SCORE.INTRA.POLAR.0>
0

>  <SCORE.INTRA.REPUL>
0

>  <SCORE.INTRA.REPUL.0>
0

>  <SCORE.INTRA.SOLV>
0.578947

>  <SCORE.INTRA.SOLV.lig_0>
-71.9159

>  <SCORE.INTRA.VDW>
0.516865

>  <SCORE.INTRA.VDW.0>
-3.53918

>  <SCORE.INTRA.norm>
-0.128255

>  <SCORE.RESTR>
0

>  <SCORE.RESTR.CAVITY>
0

>  <SCORE.RESTR.norm>
0

>  <SCORE.SYSTEM>
0

>  <SCORE.SYSTEM.CONST>
0

>  <SCORE.SYSTEM.DIHEDRAL>
0

>  <SCORE.SYSTEM.SOLV>
0

>  <SCORE.SYSTEM.norm>
0

>  <SCORE.heavy>
34

>  <SCORE.norm>
-0.146973

>  <RMSD>
7.663

$$$$
ligand
 OpenBabel01301917533D
libRbt.so/2013.1/901 2013/11/27
 34 36  0  0  0  0  0  0  0  0999 V2000
   22.4857   31.8633   34.4690 C   0  0  2  0  0  0  0  0  0  0  0  0
   21.5871   31.9022   35.5822 O   0  0  0  0  0  0  0  0  0  0  0  0
   22.4213   27.9500   37.0266 C   0  0  2  0  0  0  0  0  0  0  0  0
   22.4889   26.7617   37.8880 N   0  0  0  0  0  0  0  0  0  0  0  0
   19.0076   26.6910   36.1745 C   0  0  2  0  0  0  0  0  0  0  0  0
   22.7891   33.3466   34.0347 C   0  0  2  0  0  0  0  0  0  0  0  0
   23.3833   34.1077   35.1454 N   0  0  0  0  0  0  0  0  0  0  0  0
   23.0224   29.1588   37.8308 C   0  0  0  0  0  0  0  0  0  0  0  0
   18.9477   25.1925   35.6784 C   0  0  2  0  0  0  0  0  0  0  0  0
   19.8639   24.3952   36.4087 O   0  0  0  0  0  0  0  0  0  0  0  0
   21.4825   34.0426   33.5473 C   0  0  1  0  0  0  0  0  0  0  0  0
   21.7552   35.3989   33.1494 O   0  0  0  0  0  0  0  0  0  0  0  0
   22.9676   30.4232   36.9031 C   0  0  2  0  0  0  0  0  0  0  0  0
   23.5194   31.6159   37.6069 N   0  0  0  0  0  0  0  0  0  0  0  0
   19.3051   25.1686   34.1441 C   0  0  1  0  0  0  0  0  0  0  0  0
   19.3023   23.7862   33.6246 N   0  0  0  0  0  0  0  0  0  0  0  0
   20.8941   33.2138   32.3815 C   0  0  2  0  0  0  0  0  0  0  0  0
   19.6984   33.8433   31.9104 O   0  0  0  0  0  0  0  0  0  0  0  0
   21.5025   30.7294   36.4685 C   0  0  2  0  0  0  0  0  0  0  0  0
   18.2710   26.0435   33.3674 C   0  0  1  0  0  0  0  0  0  0  0  0
   16.9777   25.4746   33.5440 O   0  0  0  0  0  0  0  0  0  0  0  0
   20.6128   31.7364   32.8954 C   0  0  2  0  0  0  0  0  0  0  0  0
   21.8586   31.1072   33.3876 O   0  0  0  0  0  0  0  0  0  0  0  0
   20.9184   29.4904   35.7370 C   0  0  2  0  0  0  0  0  0  0  0  0
   19.5699   29.7848   35.3786 O   0  0  0  0  0  0  0  0  0  0  0  0
   18.2994   27.4938   33.9481 C   0  0  0  0  0  0  0  0  0  0  0  0
   18.0368   27.4958   35.4072 O   0  0  0  0  0  0  0  0  0  0  0  0
   20.0204   30.8189   31.7874 C   0  0  2  0  0  0  0  0  0  0  0  0
   20.7549   31.0108   30.5734 O   0  0  0  0  0  0  0  0  0  0  0  0
   20.9063   28.2369   36.6464 C   0  0  1  0  0  0  0  0  0  0  0  0
   20.3708   27.1291   35.8714 O   0  0  0  0  0  0  0  0  0  0  0  0
   18.5673   31.1304   31.5042 C   0  0  0  0  0  0  0  0  0  0  0  0
   18.5628   26.0875   31.8668 C   0  0  0  0  0  0  0  0  0  0  0  0
   20.5321   23.6140   32.8131 C   0  0  0  0  0  0  0  0  0  0  0  0
  1  2  1  1  0  0  0
  1  6  1  0  0  0  0
  1 23  1  0  0  0  0
  3  4  1  1  0  0  0
  3  8  1  0  0  0  0
  3 30  1  0  0  0  0
  5  9  1  0  0  0  0
  5 27  1  0  0  0  0
  5 31  1  6  0  0  0
  6  7  1  1  0  0  0
  6 11  1  0  0  0  0
  8 13  1  0  0  0  0
  9 10  1  1  0  0  0
  9 15  1  0  0  0  0
 11 12  1  6  0  0  0
 11 17  1  0  0  0  0
 13 14  1  1  0  0  0
 13 19  1  0  0  0  0
 15 16  1  6  0  0  0
 15 20  1  0  0  0  0
 16 34  1  0  0  0  0
 17 18  1  1  0  0  0
 17 22  1  0  0  0  0
 19  2  1  6  0  0  0
 19 24  1  0  0  0  0
 20 21  1  1  0  0  0
 20 26  1  0  0  0  0
 20 33  1  0  0  0  0
 22 23  1  6  0  0  0
 22 28  1  0  0  0  0
 24 25  1  1  0  0  0
 24 30  1  0  0  0  0
 26 27  1  0  0  0  0
 28 29  1  6  0  0  0
 28 32  1  0  0  0  0
 30 31  1  6  0  0  0
M  END
>  <CHROM.1>
-159.03701756,52.85860224,-133.69282250,44.96326289,138.79514272,-156.44986173
20.57428249,29.30058070,34.51293759,-1.03669162,0.93074008,2.58929765

>  <Name>
ligand

>  <RI>
0

>  <Rbt.Current_Directory>
/home/itssahil/PROJECTS/Mol_Feturizer/New_Systems/rnas/4p3s

>  <Rbt.Executable>
rbdock ($Id: //depot/dev/client3/rdock/2013.1/src/exe/rbdock.cxx#4 $)

>  <Rbt.Library>
libRbt.so (2013.1, Build901 2013/11/27)

>  <Rbt.Parameter_File>
/export/apps/rDock/src/rDock_2013.1_src/data/scripts/dock_solv.prm

>  <Rbt.Receptor>
prm/blind_docking_80.prm

>  <SCORE>
-0.112512

>  <SCORE.INTER>
-2.32093

>  <SCORE.INTER.CONST>
1

>  <SCORE.INTER.POLAR>
0

>  <SCORE.INTER.ROT>
6

>  <SCORE.INTER.SOLV>
18.9669

>  <SCORE.INTER.VDW>
-15.4696

>  <SCORE.INTER.norm>
-0.0682626

>  <SCORE.INTRA>
-0.91461

>  <SCORE.INTRA.DIHEDRAL>
-3.80005

>  <SCORE.INTRA.DIHEDRAL.0>
15.8194

>  <SCORE.INTRA.POLAR>
0

>  <SCORE.INTRA.POLAR.0>
0

>  <SCORE.INTRA.REPUL>
0

>  <SCORE.INTRA.REPUL.0>
0

>  <SCORE.INTRA.SOLV>
1.11059

>  <SCORE.INTRA.SOLV.lig_0>
-71.9159

>  <SCORE.INTRA.VDW>
0.430122

>  <SCORE.INTRA.VDW.0>
-3.53918

>  <SCORE.INTRA.norm>
-0.0269003

>  <SCORE.RESTR>
3.12303

>  <SCORE.RESTR.CAVITY>
3.12303

>  <SCORE.RESTR.norm>
0.0918538

>  <SCORE.SYSTEM>
0

>  <SCORE.SYSTEM.CONST>
0

>  <SCORE.SYSTEM.DIHEDRAL>
0

>  <SCORE.SYSTEM.SOLV>
0

>  <SCORE.SYSTEM.norm>
0

>  <SCORE.heavy>
34

>  <SCORE.norm>
-0.00330917

>  <RMSD>
7.668

$$$$
ligand
 OpenBabel01301917533D
libRbt.so/2013.1/901 2013/11/27
 34 36  0  0  0  0  0  0  0  0999 V2000
   23.1500   30.7141   37.5390 C   0  0  2  0  0  0  0  0  0  0  0  0
   22.5594   30.3277   38.7840 O   0  0  0  0  0  0  0  0  0  0  0  0
   21.0067   26.5574   37.4513 C   0  0  2  0  0  0  0  0  0  0  0  0
   20.4576   25.1946   37.4463 N   0  0  0  0  0  0  0  0  0  0  0  0
   18.8883   27.9993   35.8830 C   0  0  2  0  0  0  0  0  0  0  0  0
   23.7629   32.1542   37.7159 C   0  0  2  0  0  0  0  0  0  0  0  0
   24.7723   32.1672   38.7868 N   0  0  0  0  0  0  0  0  0  0  0  0
   22.3266   26.5385   38.3037 C   0  0  0  0  0  0  0  0  0  0  0  0
   17.4766   28.5887   35.4894 C   0  0  2  0  0  0  0  0  0  0  0  0
   17.1801   29.7263   36.2809 O   0  0  0  0  0  0  0  0  0  0  0  0
   22.6359   33.1839   38.0298 C   0  0  1  0  0  0  0  0  0  0  0  0
   23.1918   34.5018   38.1924 O   0  0  0  0  0  0  0  0  0  0  0  0
   22.9225   27.9900   38.2923 C   0  0  2  0  0  0  0  0  0  0  0  0
   24.1799   28.0484   39.0911 N   0  0  0  0  0  0  0  0  0  0  0  0
   16.3948   27.4665   35.7190 C   0  0  1  0  0  0  0  0  0  0  0  0
   15.0419   27.9671   35.4026 N   0  0  0  0  0  0  0  0  0  0  0  0
   21.6008   33.1394   36.8814 C   0  0  2  0  0  0  0  0  0  0  0  0
   20.5620   34.0879   37.1445 O   0  0  0  0  0  0  0  0  0  0  0  0
   21.9046   29.0124   38.8821 C   0  0  2  0  0  0  0  0  0  0  0  0
   16.7419   26.2347   34.8243 C   0  0  1  0  0  0  0  0  0  0  0  0
   16.6953   26.6419   33.4607 O   0  0  0  0  0  0  0  0  0  0  0  0
   21.0272   31.6616   36.7670 C   0  0  2  0  0  0  0  0  0  0  0  0
   22.1175   30.6957   36.5056 O   0  0  0  0  0  0  0  0  0  0  0  0
   20.5899   28.9559   38.0576 C   0  0  2  0  0  0  0  0  0  0  0  0
   19.6666   29.8760   38.6360 O   0  0  0  0  0  0  0  0  0  0  0  0
   18.1792   25.7385   35.1839 C   0  0  0  0  0  0  0  0  0  0  0  0
   19.1774   26.8248   35.0369 O   0  0  0  0  0  0  0  0  0  0  0  0
   19.9755   31.5132   35.6302 C   0  0  2  0  0  0  0  0  0  0  0  0
   20.4577   32.1699   34.4528 O   0  0  0  0  0  0  0  0  0  0  0  0
   19.9458   27.5481   38.0956 C   0  0  1  0  0  0  0  0  0  0  0  0
   18.7428   27.5861   37.2795 O   0  0  0  0  0  0  0  0  0  0  0  0
   18.6463   32.1357   35.9968 C   0  0  0  0  0  0  0  0  0  0  0  0
   15.7449   25.0893   35.0059 C   0  0  0  0  0  0  0  0  0  0  0  0
   14.5246   28.6468   36.6156 C   0  0  0  0  0  0  0  0  0  0  0  0
  1  2  1  1  0  0  0
  1  6  1  0  0  0  0
  1 23  1  0  0  0  0
  3  4  1  1  0  0  0
  3  8  1  0  0  0  0
  3 30  1  0  0  0  0
  5  9  1  0  0  0  0
  5 27  1  0  0  0  0
  5 31  1  1  0  0  0
  6  7  1  1  0  0  0
  6 11  1  0  0  0  0
  8 13  1  0  0  0  0
  9 10  1  1  0  0  0
  9 15  1  0  0  0  0
 11 12  1  6  0  0  0
 11 17  1  0  0  0  0
 13 14  1  1  0  0  0
 13 19  1  0  0  0  0
 15 16  1  6  0  0  0
 15 20  1  0  0  0  0
 16 34  1  0  0  0  0
 17 18  1  1  0  0  0
 17 22  1  0  0  0  0
 19  2  1  6  0  0  0
 19 24  1  0  0  0  0
 20 21  1  6  0  0  0
 20 26  1  0  0  0  0
 20 33  1  0  0  0  0
 22 23  1  6  0  0  0
 22 28  1  0  0  0  0
 24 25  1  1  0  0  0
 24 30  1  0  0  0  0
 26 27  1  0  0  0  0
 28 29  1  6  0  0  0
 28 32  1  0  0  0  0
 30 31  1  6  0  0  0
M  END
>  <CHROM.1>
179.63391701,49.10384800,-85.21265541,45.03228720,-58.60773329,-154.04000486
20.03340459,29.34815948,36.83056864,-0.63113314,0.46232060,3.03559089

>  <Name>
ligand

>  <RI>
0

>  <Rbt.Current_Directory>
/home/itssahil/PROJECTS/Mol_Feturizer/New_Systems/rnas/4p3s

>  <Rbt.Executable>
rbdock ($Id: //depot/dev/client3/rdock/2013.1/src/exe/rbdock.cxx#4 $)

>  <Rbt.Library>
libRbt.so (2013.1, Build901 2013/11/27)

>  <Rbt.Parameter_File>
/export/apps/rDock/src/rDock_2013.1_src/data/scripts/dock_solv.prm

>  <Rbt.Receptor>
prm/pocket_docking_3.prm

>  <SCORE>
-4.69718

>  <SCORE.INTER>
-2.44967

>  <SCORE.INTER.CONST>
1

>  <SCORE.INTER.POLAR>
0

>  <SCORE.INTER.ROT>
6

>  <SCORE.INTER.SOLV>
19.9947

>  <SCORE.INTER.VDW>
-15.898

>  <SCORE.INTER.norm>
-0.0720491

>  <SCORE.INTRA>
-2.40806

>  <SCORE.INTRA.DIHEDRAL>
-11.0857

>  <SCORE.INTRA.DIHEDRAL.0>
15.8194

>  <SCORE.INTRA.POLAR>
0

>  <SCORE.INTRA.POLAR.0>
0

>  <SCORE.INTRA.REPUL>
0

>  <SCORE.INTRA.REPUL.0>
0

>  <SCORE.INTRA.SOLV>
2.21078

>  <SCORE.INTRA.SOLV.lig_0>
-71.9159

>  <SCORE.INTRA.VDW>
2.02942

>  <SCORE.INTRA.VDW.0>
-3.53918

>  <SCORE.INTRA.norm>
-0.0708253

>  <SCORE.RESTR>
0.16055

>  <SCORE.RESTR.CAVITY>
0.16055

>  <SCORE.RESTR.norm>
0.00472206

>  <SCORE.SYSTEM>
0

>  <SCORE.SYSTEM.CONST>
0

>  <SCORE.SYSTEM.DIHEDRAL>
0

>  <SCORE.SYSTEM.SOLV>
0

>  <SCORE.SYSTEM.norm>
0

>  <SCORE.heavy>
34

>  <SCORE.norm>
-0.138152

>  <RMSD>
7.670

$$$$
ligand
 OpenBabel01301917533D
libRbt.so/2013.1/901 2013/11/27
 34 36  0  0  0  0  0  0  0  0999 V2000
   21.1682   29.4323   38.2043 C   0  0  2  0  0  0  0  0  0  0  0  0
   20.4882   29.6631   39.4423 O   0  0  0  0  0  0  0  0  0  0  0  0
   17.6664   32.6513   40.6713 C   0  0  2  0  0  0  0  0  0  0  0  0
   17.0766   33.9340   41.0780 N   0  0  0  0  0  0  0  0  0  0  0  0
   16.5151   34.3618   38.2152 C   0  0  2  0  0  0  0  0  0  0  0  0
   21.5453   27.9047   38.1322 C   0  0  2  0  0  0  0  0  0  0  0  0
   20.3416   27.0623   38.2195 N   0  0  0  0  0  0  0  0  0  0  0  0
   18.8730   32.3530   41.6328 C   0  0  0  0  0  0  0  0  0  0  0  0
   15.2386   34.2546   37.2909 C   0  0  2  0  0  0  0  0  0  0  0  0
   14.2675   33.4129   37.8885 O   0  0  0  0  0  0  0  0  0  0  0  0
   22.5378   27.5406   39.2773 C   0  0  1  0  0  0  0  0  0  0  0  0
   22.8851   26.1449   39.2152 O   0  0  0  0  0  0  0  0  0  0  0  0
   19.4901   30.9737   41.2099 C   0  0  2  0  0  0  0  0  0  0  0  0
   20.6499   30.6277   42.0802 N   0  0  0  0  0  0  0  0  0  0  0  0
   15.6879   33.6677   35.8995 C   0  0  1  0  0  0  0  0  0  0  0  0
   14.5298   33.5076   34.9972 N   0  0  0  0  0  0  0  0  0  0  0  0
   23.7857   28.4450   39.1470 C   0  0  2  0  0  0  0  0  0  0  0  0
   24.7167   28.1180   40.1835 O   0  0  0  0  0  0  0  0  0  0  0  0
   19.9682   31.0110   39.7269 C   0  0  2  0  0  0  0  0  0  0  0  0
   16.7458   34.6233   35.2622 C   0  0  1  0  0  0  0  0  0  0  0  0
   16.1349   35.8914   35.0474 O   0  0  0  0  0  0  0  0  0  0  0  0
   23.3273   29.9644   39.2317 C   0  0  2  0  0  0  0  0  0  0  0  0
   22.3578   30.2793   38.1589 O   0  0  0  0  0  0  0  0  0  0  0  0
   18.7664   31.3741   38.8130 C   0  0  2  0  0  0  0  0  0  0  0  0
   19.2368   31.4324   37.4679 O   0  0  0  0  0  0  0  0  0  0  0  0
   17.9502   34.7715   36.2466 C   0  0  0  0  0  0  0  0  0  0  0  0
   17.5040   35.2520   37.5763 O   0  0  0  0  0  0  0  0  0  0  0  0
   24.5180   30.9577   39.1054 C   0  0  2  0  0  0  0  0  0  0  0  0
   25.4602   30.7003   40.1524 O   0  0  0  0  0  0  0  0  0  0  0  0
   18.1693   32.7581   39.1687 C   0  0  1  0  0  0  0  0  0  0  0  0
   17.0407   32.9975   38.2834 O   0  0  0  0  0  0  0  0  0  0  0  0
   24.0747   32.3992   39.2248 C   0  0  0  0  0  0  0  0  0  0  0  0
   17.2487   34.1104   33.9121 C   0  0  0  0  0  0  0  0  0  0  0  0
   14.3409   32.0538   34.7703 C   0  0  0  0  0  0  0  0  0  0  0  0
  1  2  1  1  0  0  0
  1  6  1  0  0  0  0
  1 23  1  0  0  0  0
  3  4  1  1  0  0  0
  3  8  1  0  0  0  0
  3 30  1  0  0  0  0
  5  9  1  0  0  0  0
  5 27  1  0  0  0  0
  5 31  1  6  0  0  0
  6  7  1  1  0  0  0
  6 11  1  0  0  0  0
  8 13  1  0  0  0  0
  9 10  1  1  0  0  0
  9 15  1  0  0  0  0
 11 12  1  6  0  0  0
 11 17  1  0  0  0  0
 13 14  1  1  0  0  0
 13 19  1  0  0  0  0
 15 16  1  6  0  0  0
 15 20  1  0  0  0  0
 16 34  1  0  0  0  0
 17 18  1  1  0  0  0
 17 22  1  0  0  0  0
 19  2  1  6  0  0  0
 19 24  1  0  0  0  0
 20 21  1  6  0  0  0
 20 26  1  0  0  0  0
 20 33  1  0  0  0  0
 22 23  1  6  0  0  0
 22 28  1  0  0  0  0
 24 25  1  6  0  0  0
 24 30  1  0  0  0  0
 26 27  1  0  0  0  0
 28 29  1  1  0  0  0
 28 32  1  0  0  0  0
 30 31  1  6  0  0  0
M  END
>  <CHROM.1>
-177.08040173,-171.73644200,-113.61144734,-58.93071952,78.65394531,-174.91945271
19.43723427,31.60821485,38.36248312,-0.06301819,0.68471636,-2.01848973

>  <Name>
ligand

>  <RI>
0

>  <Rbt.Current_Directory>
/home/itssahil/PROJECTS/Mol_Feturizer/New_Systems/rnas/4p3s

>  <Rbt.Executable>
rbdock ($Id: //depot/dev/client3/rdock/2013.1/src/exe/rbdock.cxx#4 $)

>  <Rbt.Library>
libRbt.so (2013.1, Build901 2013/11/27)

>  <Rbt.Parameter_File>
/export/apps/rDock/src/rDock_2013.1_src/data/scripts/dock_solv.prm

>  <Rbt.Receptor>
prm/pocket_docking_7.prm

>  <SCORE>
-6.53354

>  <SCORE.INTER>
0.0927786

>  <SCORE.INTER.CONST>
1

>  <SCORE.INTER.POLAR>
0

>  <SCORE.INTER.ROT>
6

>  <SCORE.INTER.SOLV>
6.71367

>  <SCORE.INTER.VDW>
-9.77604

>  <SCORE.INTER.norm>
0.00272878

>  <SCORE.INTRA>
-6.62631

>  <SCORE.INTRA.DIHEDRAL>
-12.4747

>  <SCORE.INTRA.DIHEDRAL.0>
15.8194

>  <SCORE.INTRA.POLAR>
0

>  <SCORE.INTRA.POLAR.0>
0

>  <SCORE.INTRA.REPUL>
0

>  <SCORE.INTRA.REPUL.0>
0

>  <SCORE.INTRA.SOLV>
-0.862558

>  <SCORE.INTRA.SOLV.lig_0>
-71.9159

>  <SCORE.INTRA.VDW>
0.0423331

>  <SCORE.INTRA.VDW.0>
-3.53918

>  <SCORE.INTRA.norm>
-0.194892

>  <SCORE.RESTR>
0

>  <SCORE.RESTR.CAVITY>
0

>  <SCORE.RESTR.norm>
0

>  <SCORE.SYSTEM>
0

>  <SCORE.SYSTEM.CONST>
0

>  <SCORE.SYSTEM.DIHEDRAL>
0

>  <SCORE.SYSTEM.SOLV>
0

>  <SCORE.SYSTEM.norm>
0

>  <SCORE.heavy>
34

>  <SCORE.norm>
-0.192163

>  <RMSD>
7.681

$$$$
ligand
 OpenBabel01301917533D
libRbt.so/2013.1/901 2013/11/27
 34 36  0  0  0  0  0  0  0  0999 V2000
   22.7125   28.4271   41.6595 C   0  0  2  0  0  0  0  0  0  0  0  0
   22.8437   29.0527   40.3790 O   0  0  0  0  0  0  0  0  0  0  0  0
   21.0877   28.1903   36.5613 C   0  0  2  0  0  0  0  0  0  0  0  0
   20.1081   27.8817   35.5107 N   0  0  0  0  0  0  0  0  0  0  0  0
   20.3015   31.9223   36.2621 C   0  0  2  0  0  0  0  0  0  0  0  0
   22.2115   29.5132   42.6842 C   0  0  2  0  0  0  0  0  0  0  0  0
   20.9225   30.0818   42.2582 N   0  0  0  0  0  0  0  0  0  0  0  0
   20.9331   27.1103   37.6921 C   0  0  0  0  0  0  0  0  0  0  0  0
   19.8936   32.3559   34.7989 C   0  0  2  0  0  0  0  0  0  0  0  0
   18.9842   31.4213   34.2440 O   0  0  0  0  0  0  0  0  0  0  0  0
   23.2732   30.6446   42.8315 C   0  0  1  0  0  0  0  0  0  0  0  0
   22.8192   31.6398   43.7673 O   0  0  0  0  0  0  0  0  0  0  0  0
   21.9929   27.4294   38.8044 C   0  0  2  0  0  0  0  0  0  0  0  0
   21.8993   26.4430   39.9182 N   0  0  0  0  0  0  0  0  0  0  0  0
   21.2029   32.4286   33.9255 C   0  0  1  0  0  0  0  0  0  0  0  0
   20.8853   32.7953   32.5307 N   0  0  0  0  0  0  0  0  0  0  0  0
   24.6077   30.0055   43.2816 C   0  0  2  0  0  0  0  0  0  0  0  0
   25.5947   31.0304   43.4348 O   0  0  0  0  0  0  0  0  0  0  0  0
   21.7773   28.8611   39.3818 C   0  0  2  0  0  0  0  0  0  0  0  0
   22.1765   33.4749   34.5546 C   0  0  1  0  0  0  0  0  0  0  0  0
   21.5419   34.7494   34.5335 O   0  0  0  0  0  0  0  0  0  0  0  0
   25.0486   28.9271   42.2005 C   0  0  2  0  0  0  0  0  0  0  0  0
   24.0110   27.8827   42.0495 O   0  0  0  0  0  0  0  0  0  0  0  0
   21.8700   29.8954   38.2272 C   0  0  2  0  0  0  0  0  0  0  0  0
   21.6385   31.1911   38.7761 O   0  0  0  0  0  0  0  0  0  0  0  0
   22.4837   33.0565   36.0284 C   0  0  0  0  0  0  0  0  0  0  0  0
   21.2381   32.9173   36.8203 O   0  0  0  0  0  0  0  0  0  0  0  0
   26.3856   28.2216   42.5683 C   0  0  2  0  0  0  0  0  0  0  0  0
   26.3513   27.8346   43.9464 O   0  0  0  0  0  0  0  0  0  0  0  0
   20.7984   29.6414   37.1384 C   0  0  1  0  0  0  0  0  0  0  0  0
   20.9799   30.6364   36.0936 O   0  0  0  0  0  0  0  0  0  0  0  0
   27.5820   29.1260   42.3703 C   0  0  0  0  0  0  0  0  0  0  0  0
   23.4854   33.5899   33.7721 C   0  0  0  0  0  0  0  0  0  0  0  0
   21.1714   31.6113   31.6838 C   0  0  0  0  0  0  0  0  0  0  0  0
  1  2  1  6  0  0  0
  1  6  1  0  0  0  0
  1 23  1  0  0  0  0
  3  4  1  6  0  0  0
  3  8  1  0  0  0  0
  3 30  1  0  0  0  0
  5  9  1  0  0  0  0
  5 27  1  0  0  0  0
  5 31  1  6  0  0  0
  6  7  1  6  0  0  0
  6 11  1  0  0  0  0
  8 13  1  0  0  0  0
  9 10  1  6  0  0  0
  9 15  1  0  0  0  0
 11 12  1  1  0  0  0
 11 17  1  0  0  0  0
 13 14  1  1  0  0  0
 13 19  1  0  0  0  0
 15 16  1  6  0  0  0
 15 20  1  0  0  0  0
 16 34  1  0  0  0  0
 17 18  1  6  0  0  0
 17 22  1  0  0  0  0
 19  2  1  1  0  0  0
 19 24  1  0  0  0  0
 20 21  1  1  0  0  0
 20 26  1  0  0  0  0
 20 33  1  0  0  0  0
 22 23  1  1  0  0  0
 22 28  1  0  0  0  0
 24 25  1  1  0  0  0
 24 30  1  0  0  0  0
 26 27  1  0  0  0  0
 28 29  1  1  0  0  0
 28 32  1  0  0  0  0
 30 31  1  6  0  0  0
M  END
>  <CHROM.1>
-100.41290875,-77.12524937,-111.94624805,46.03272259,157.67995545,-145.09936247
22.39792336,30.32595944,38.56290500,0.91153956,0.93386095,2.48008207

>  <Name>
ligand

>  <RI>
0

>  <Rbt.Current_Directory>
/home/itssahil/PROJECTS/Mol_Feturizer/New_Systems/rnas/4p3s

>  <Rbt.Executable>
rbdock ($Id: //depot/dev/client3/rdock/2013.1/src/exe/rbdock.cxx#4 $)

>  <Rbt.Library>
libRbt.so (2013.1, Build901 2013/11/27)

>  <Rbt.Parameter_File>
/export/apps/rDock/src/rDock_2013.1_src/data/scripts/dock_solv.prm

>  <Rbt.Receptor>
prm/pocket_docking_6.prm

>  <SCORE>
1.61342

>  <SCORE.INTER>
0.518964

>  <SCORE.INTER.CONST>
1

>  <SCORE.INTER.POLAR>
0

>  <SCORE.INTER.ROT>
6

>  <SCORE.INTER.SOLV>
6.96569

>  <SCORE.INTER.VDW>
-9.57592

>  <SCORE.INTER.norm>
0.0152636

>  <SCORE.INTRA>
1.09445

>  <SCORE.INTRA.DIHEDRAL>
-0.445983

>  <SCORE.INTRA.DIHEDRAL.0>
15.8194

>  <SCORE.INTRA.POLAR>
0

>  <SCORE.INTRA.POLAR.0>
0

>  <SCORE.INTRA.REPUL>
0

>  <SCORE.INTRA.REPUL.0>
0

>  <SCORE.INTRA.SOLV>
1.08178

>  <SCORE.INTRA.SOLV.lig_0>
-71.9159

>  <SCORE.INTRA.VDW>
0.776552

>  <SCORE.INTRA.VDW.0>
-3.53918

>  <SCORE.INTRA.norm>
0.0321898

>  <SCORE.RESTR>
0

>  <SCORE.RESTR.CAVITY>
0

>  <SCORE.RESTR.norm>
0

>  <SCORE.SYSTEM>
0

>  <SCORE.SYSTEM.CONST>
0

>  <SCORE.SYSTEM.DIHEDRAL>
0

>  <SCORE.SYSTEM.SOLV>
0

>  <SCORE.SYSTEM.norm>
0

>  <SCORE.heavy>
34

>  <SCORE.norm>
0.0474534

>  <RMSD>
7.697

$$$$
ligand
 OpenBabel01301917533D
libRbt.so/2013.1/901 2013/11/27
 34 36  0  0  0  0  0  0  0  0999 V2000
   19.9005   33.5417   35.5588 C   0  0  2  0  0  0  0  0  0  0  0  0
   21.2146   32.9769   35.5131 O   0  0  0  0  0  0  0  0  0  0  0  0
   23.8381   31.1850   38.3956 C   0  0  2  0  0  0  0  0  0  0  0  0
   24.7109   30.9916   39.5616 N   0  0  0  0  0  0  0  0  0  0  0  0
   20.5405   30.4015   40.2440 C   0  0  2  0  0  0  0  0  0  0  0  0
   19.2774   33.4453   34.1155 C   0  0  2  0  0  0  0  0  0  0  0  0
   19.2175   32.0464   33.6621 N   0  0  0  0  0  0  0  0  0  0  0  0
   24.3783   32.4235   37.5936 C   0  0  0  0  0  0  0  0  0  0  0  0
   20.8052   31.2682   41.5378 C   0  0  2  0  0  0  0  0  0  0  0  0
   21.2617   32.5611   41.1793 O   0  0  0  0  0  0  0  0  0  0  0  0
   20.1103   34.2983   33.1116 C   0  0  1  0  0  0  0  0  0  0  0  0
   19.5443   34.2128   31.7907 O   0  0  0  0  0  0  0  0  0  0  0  0
   23.4570   32.6173   36.3382 C   0  0  2  0  0  0  0  0  0  0  0  0
   23.9094   33.7851   35.5294 N   0  0  0  0  0  0  0  0  0  0  0  0
   21.8889   30.5291   42.4106 C   0  0  1  0  0  0  0  0  0  0  0  0
   22.2096   31.3091   43.6229 N   0  0  0  0  0  0  0  0  0  0  0  0
   20.1456   35.7573   33.6234 C   0  0  2  0  0  0  0  0  0  0  0  0
   20.8965   36.5613   32.7081 O   0  0  0  0  0  0  0  0  0  0  0  0
   21.9761   32.8464   36.7667 C   0  0  2  0  0  0  0  0  0  0  0  0
   21.3509   29.1158   42.7998 C   0  0  1  0  0  0  0  0  0  0  0  0
   20.1718   29.2826   43.5804 O   0  0  0  0  0  0  0  0  0  0  0  0
   20.7872   35.7738   35.0774 C   0  0  2  0  0  0  0  0  0  0  0  0
   20.0027   34.9291   36.0054 O   0  0  0  0  0  0  0  0  0  0  0  0
   21.4974   31.6354   37.6128 C   0  0  2  0  0  0  0  0  0  0  0  0
   20.1528   31.8841   38.0177 O   0  0  0  0  0  0  0  0  0  0  0  0
   21.0184   28.3249   41.4939 C   0  0  0  0  0  0  0  0  0  0  0  0
   20.0554   29.0662   40.6447 O   0  0  0  0  0  0  0  0  0  0  0  0
   20.8627   37.2048   35.6831 C   0  0  2  0  0  0  0  0  0  0  0  0
   21.5032   37.1426   36.9622 O   0  0  0  0  0  0  0  0  0  0  0  0
   22.3527   31.4511   38.8907 C   0  0  1  0  0  0  0  0  0  0  0  0
   21.8495   30.2854   39.5996 O   0  0  0  0  0  0  0  0  0  0  0  0
   19.4924   37.8149   35.8801 C   0  0  0  0  0  0  0  0  0  0  0  0
   22.3580   28.3239   43.6350 C   0  0  0  0  0  0  0  0  0  0  0  0
   23.6778   31.5207   43.6397 C   0  0  0  0  0  0  0  0  0  0  0  0
  1  2  1  6  0  0  0
  1  6  1  0  0  0  0
  1 23  1  0  0  0  0
  3  4  1  1  0  0  0
  3  8  1  0  0  0  0
  3 30  1  0  0  0  0
  5  9  1  0  0  0  0
  5 27  1  0  0  0  0
  5 31  1  1  0  0  0
  6  7  1  6  0  0  0
  6 11  1  0  0  0  0
  8 13  1  0  0  0  0
  9 10  1  6  0  0  0
  9 15  1  0  0  0  0
 11 12  1  6  0  0  0
 11 17  1  0  0  0  0
 13 14  1  1  0  0  0
 13 19  1  0  0  0  0
 15 16  1  1  0  0  0
 15 20  1  0  0  0  0
 16 34  1  0  0  0  0
 17 18  1  6  0  0  0
 17 22  1  0  0  0  0
 19  2  1  6  0  0  0
 19 24  1  0  0  0  0
 20 21  1  1  0  0  0
 20 26  1  0  0  0  0
 20 33  1  0  0  0  0
 22 23  1  1  0  0  0
 22 28  1  0  0  0  0
 24 25  1  1  0  0  0
 24 30  1  0  0  0  0
 26 27  1  0  0  0  0
 28 29  1  1  0  0  0
 28 32  1  0  0  0  0
 30 31  1  6  0  0  0
M  END
>  <CHROM.1>
-175.14506555,-163.57644464,-125.15766326,-177.46800267,174.03800369,-75.45504467
21.34293064,32.55984663,38.03187490,1.83695713,-1.01608751,-0.76192926

>  <Name>
ligand

>  <RI>
0

>  <Rbt.Current_Directory>
/home/itssahil/PROJECTS/Mol_Feturizer/New_Systems/rnas/4p3s

>  <Rbt.Executable>
rbdock ($Id: //depot/dev/client3/rdock/2013.1/src/exe/rbdock.cxx#4 $)

>  <Rbt.Library>
libRbt.so (2013.1, Build901 2013/11/27)

>  <Rbt.Parameter_File>
/export/apps/rDock/src/rDock_2013.1_src/data/scripts/dock_solv.prm

>  <Rbt.Receptor>
prm/pocket_docking_6.prm

>  <SCORE>
-4.16031

>  <SCORE.INTER>
0.731366

>  <SCORE.INTER.CONST>
1

>  <SCORE.INTER.POLAR>
0

>  <SCORE.INTER.ROT>
6

>  <SCORE.INTER.SOLV>
9.17301

>  <SCORE.INTER.VDW>
-10.1701

>  <SCORE.INTER.norm>
0.0215108

>  <SCORE.INTRA>
-4.89167

>  <SCORE.INTRA.DIHEDRAL>
-11.8515

>  <SCORE.INTRA.DIHEDRAL.0>
15.8194

>  <SCORE.INTRA.POLAR>
0

>  <SCORE.INTRA.POLAR.0>
0

>  <SCORE.INTRA.REPUL>
0

>  <SCORE.INTRA.REPUL.0>
0

>  <SCORE.INTRA.SOLV>
-0.565495

>  <SCORE.INTRA.SOLV.lig_0>
-71.9159

>  <SCORE.INTRA.VDW>
1.31682

>  <SCORE.INTRA.VDW.0>
-3.53918

>  <SCORE.INTRA.norm>
-0.143873

>  <SCORE.RESTR>
0

>  <SCORE.RESTR.CAVITY>
0

>  <SCORE.RESTR.norm>
0

>  <SCORE.SYSTEM>
0

>  <SCORE.SYSTEM.CONST>
0

>  <SCORE.SYSTEM.DIHEDRAL>
0

>  <SCORE.SYSTEM.SOLV>
0

>  <SCORE.SYSTEM.norm>
0

>  <SCORE.heavy>
34

>  <SCORE.norm>
-0.122362

>  <RMSD>
7.704

$$$$
ligand
 OpenBabel01301917533D
libRbt.so/2013.1/901 2013/11/27
 34 36  0  0  0  0  0  0  0  0999 V2000
   21.8091   31.0406   39.8038 C   0  0  2  0  0  0  0  0  0  0  0  0
   22.0659   29.7220   39.3102 O   0  0  0  0  0  0  0  0  0  0  0  0
   20.3980   27.4652   36.0656 C   0  0  2  0  0  0  0  0  0  0  0  0
   19.4688   26.6828   35.2391 N   0  0  0  0  0  0  0  0  0  0  0  0
   18.8241   29.0638   33.9627 C   0  0  2  0  0  0  0  0  0  0  0  0
   23.1563   31.6158   40.3826 C   0  0  2  0  0  0  0  0  0  0  0  0
   24.2001   31.6520   39.3457 N   0  0  0  0  0  0  0  0  0  0  0  0
   20.5121   26.7534   37.4618 C   0  0  0  0  0  0  0  0  0  0  0  0
   18.9612   30.0203   32.7130 C   0  0  2  0  0  0  0  0  0  0  0  0
   20.2743   29.9539   32.1840 O   0  0  0  0  0  0  0  0  0  0  0  0
   23.6328   30.7563   41.5923 C   0  0  1  0  0  0  0  0  0  0  0  0
   24.8642   31.2785   42.1245 O   0  0  0  0  0  0  0  0  0  0  0  0
   21.5195   27.5789   38.3370 C   0  0  2  0  0  0  0  0  0  0  0  0
   21.6731   26.9615   39.6852 N   0  0  0  0  0  0  0  0  0  0  0  0
   18.6344   31.4889   33.1806 C   0  0  1  0  0  0  0  0  0  0  0  0
   18.7805   32.4421   32.0621 N   0  0  0  0  0  0  0  0  0  0  0  0
   22.5103   30.7470   42.6563 C   0  0  2  0  0  0  0  0  0  0  0  0
   22.9331   29.9720   43.7826 O   0  0  0  0  0  0  0  0  0  0  0  0
   21.0293   29.0483   38.5102 C   0  0  2  0  0  0  0  0  0  0  0  0
   17.1789   31.5311   33.7445 C   0  0  1  0  0  0  0  0  0  0  0  0
   16.2809   31.1742   32.6987 O   0  0  0  0  0  0  0  0  0  0  0  0
   21.1896   30.1531   42.0012 C   0  0  2  0  0  0  0  0  0  0  0  0
   20.7753   30.9618   40.8331 O   0  0  0  0  0  0  0  0  0  0  0  0
   20.8634   29.6985   37.1097 C   0  0  2  0  0  0  0  0  0  0  0  0
   20.3851   31.0291   37.2950 O   0  0  0  0  0  0  0  0  0  0  0  0
   17.0627   30.5077   34.9195 C   0  0  0  0  0  0  0  0  0  0  0  0
   17.4462   29.1428   34.4859 O   0  0  0  0  0  0  0  0  0  0  0  0
   19.9953   30.1065   42.9971 C   0  0  2  0  0  0  0  0  0  0  0  0
   18.8363   29.6069   42.3208 O   0  0  0  0  0  0  0  0  0  0  0  0
   19.8316   28.9387   36.2401 C   0  0  1  0  0  0  0  0  0  0  0  0
   19.7645   29.6009   34.9472 O   0  0  0  0  0  0  0  0  0  0  0  0
   19.6569   31.4743   43.5478 C   0  0  0  0  0  0  0  0  0  0  0  0
   16.7912   32.9250   34.2399 C   0  0  0  0  0  0  0  0  0  0  0  0
   20.0671   33.1558   32.2517 C   0  0  0  0  0  0  0  0  0  0  0  0
  1  2  1  1  0  0  0
  1  6  1  0  0  0  0
  1 23  1  0  0  0  0
  3  4  1  6  0  0  0
  3  8  1  0  0  0  0
  3 30  1  0  0  0  0
  5  9  1  0  0  0  0
  5 27  1  0  0  0  0
  5 31  1  1  0  0  0
  6  7  1  6  0  0  0
  6 11  1  0  0  0  0
  8 13  1  0  0  0  0
  9 10  1  1  0  0  0
  9 15  1  0  0  0  0
 11 12  1  1  0  0  0
 11 17  1  0  0  0  0
 13 14  1  1  0  0  0
 13 19  1  0  0  0  0
 15 16  1  6  0  0  0
 15 20  1  0  0  0  0
 16 34  1  0  0  0  0
 17 18  1  1  0  0  0
 17 22  1  0  0  0  0
 19  2  1  1  0  0  0
 19 24  1  0  0  0  0
 20 21  1  6  0  0  0
 20 26  1  0  0  0  0
 20 33  1  0  0  0  0
 22 23  1  6  0  0  0
 22 28  1  0  0  0  0
 24 25  1  1  0  0  0
 24 30  1  0  0  0  0
 26 27  1  0  0  0  0
 28 29  1  6  0  0  0
 28 32  1  0  0  0  0
 30 31  1  6  0  0  0
M  END
>  <CHROM.1>
-169.69985547,-171.00725376,-102.95003142,177.93844886,65.76985243,178.17463031
20.32330259,30.14747936,37.59696285,0.07527364,-1.16079739,0.12314803

>  <Name>
ligand

>  <RI>
0

>  <Rbt.Current_Directory>
/home/itssahil/PROJECTS/Mol_Feturizer/New_Systems/rnas/4p3s

>  <Rbt.Executable>
rbdock ($Id: //depot/dev/client3/rdock/2013.1/src/exe/rbdock.cxx#4 $)

>  <Rbt.Library>
libRbt.so (2013.1, Build901 2013/11/27)

>  <Rbt.Parameter_File>
/export/apps/rDock/src/rDock_2013.1_src/data/scripts/dock_solv.prm

>  <Rbt.Receptor>
prm/pocket_docking_6.prm

>  <SCORE>
-5.03255

>  <SCORE.INTER>
0.949028

>  <SCORE.INTER.CONST>
1

>  <SCORE.INTER.POLAR>
0

>  <SCORE.INTER.ROT>
6

>  <SCORE.INTER.SOLV>
10.3237

>  <SCORE.INTER.VDW>
-10.4085

>  <SCORE.INTER.norm>
0.0279126

>  <SCORE.INTRA>
-5.98158

>  <SCORE.INTRA.DIHEDRAL>
-13.6346

>  <SCORE.INTRA.DIHEDRAL.0>
15.8194

>  <SCORE.INTRA.POLAR>
0

>  <SCORE.INTRA.POLAR.0>
0

>  <SCORE.INTRA.REPUL>
0

>  <SCORE.INTRA.REPUL.0>
0

>  <SCORE.INTRA.SOLV>
-0.500661

>  <SCORE.INTRA.SOLV.lig_0>
-71.9159

>  <SCORE.INTRA.VDW>
1.08604

>  <SCORE.INTRA.VDW.0>
-3.53918

>  <SCORE.INTRA.norm>
-0.175929

>  <SCORE.RESTR>
0

>  <SCORE.RESTR.CAVITY>
0

>  <SCORE.RESTR.norm>
0

>  <SCORE.SYSTEM>
0

>  <SCORE.SYSTEM.CONST>
0

>  <SCORE.SYSTEM.DIHEDRAL>
0

>  <SCORE.SYSTEM.SOLV>
0

>  <SCORE.SYSTEM.norm>
0

>  <SCORE.heavy>
34

>  <SCORE.norm>
-0.148016

>  <RMSD>
7.753

$$$$
ligand
 OpenBabel01301917533D
libRbt.so/2013.1/901 2013/11/27
 34 36  0  0  0  0  0  0  0  0999 V2000
   23.5547   30.9091   38.0079 C   0  0  2  0  0  0  0  0  0  0  0  0
   22.6852   30.5373   39.0820 O   0  0  0  0  0  0  0  0  0  0  0  0
   21.4126   26.7670   37.4796 C   0  0  2  0  0  0  0  0  0  0  0  0
   20.9218   25.3861   37.3761 N   0  0  0  0  0  0  0  0  0  0  0  0
   19.4009   28.1243   35.7581 C   0  0  2  0  0  0  0  0  0  0  0  0
   24.2381   32.2773   38.3846 C   0  0  2  0  0  0  0  0  0  0  0  0
   24.9977   32.1566   39.6394 N   0  0  0  0  0  0  0  0  0  0  0  0
   22.6501   26.7637   38.4480 C   0  0  0  0  0  0  0  0  0  0  0  0
   18.0072   28.6276   35.2107 C   0  0  2  0  0  0  0  0  0  0  0  0
   17.5661   29.7539   35.9492 O   0  0  0  0  0  0  0  0  0  0  0  0
   23.1629   33.3980   38.5153 C   0  0  1  0  0  0  0  0  0  0  0  0
   23.7833   34.6505   38.8598 O   0  0  0  0  0  0  0  0  0  0  0  0
   23.1854   28.2357   38.5427 C   0  0  2  0  0  0  0  0  0  0  0  0
   24.3623   28.3094   39.4547 N   0  0  0  0  0  0  0  0  0  0  0  0
   16.9720   27.4474   35.3444 C   0  0  1  0  0  0  0  0  0  0  0  0
   15.6338   27.8663   34.8813 N   0  0  0  0  0  0  0  0  0  0  0  0
   22.3919   33.4924   37.1779 C   0  0  2  0  0  0  0  0  0  0  0  0
   21.4062   34.5256   37.2725 O   0  0  0  0  0  0  0  0  0  0  0  0
   22.0780   29.1958   39.0730 C   0  0  2  0  0  0  0  0  0  0  0  0
   17.4794   26.2290   34.5100 C   0  0  1  0  0  0  0  0  0  0  0  0
   17.5530   26.6194   33.1427 O   0  0  0  0  0  0  0  0  0  0  0  0
   21.7304   32.0808   36.8681 C   0  0  2  0  0  0  0  0  0  0  0  0
   22.7643   31.0252   36.7847 O   0  0  0  0  0  0  0  0  0  0  0  0
   20.8462   29.1229   38.1302 C   0  0  2  0  0  0  0  0  0  0  0  0
   19.8380   29.9848   38.6541 O   0  0  0  0  0  0  0  0  0  0  0  0
   18.8968   25.8197   35.0247 C   0  0  0  0  0  0  0  0  0  0  0  0
   19.8423   26.9601   34.9652 O   0  0  0  0  0  0  0  0  0  0  0  0
   20.9318   32.0731   35.5330 C   0  0  2  0  0  0  0  0  0  0  0  0
   20.4019   30.7621   35.3079 O   0  0  0  0  0  0  0  0  0  0  0  0
   20.2588   27.6918   38.0590 C   0  0  1  0  0  0  0  0  0  0  0  0
   19.1335   27.7170   37.1382 O   0  0  0  0  0  0  0  0  0  0  0  0
   21.7988   32.4327   34.3466 C   0  0  0  0  0  0  0  0  0  0  0  0
   16.5348   25.0300   34.6051 C   0  0  0  0  0  0  0  0  0  0  0  0
   14.9378   28.4858   36.0358 C   0  0  0  0  0  0  0  0  0  0  0  0
  1  2  1  1  0  0  0
  1  6  1  0  0  0  0
  1 23  1  0  0  0  0
  3  4  1  1  0  0  0
  3  8  1  0  0  0  0
  3 30  1  0  0  0  0
  5  9  1  0  0  0  0
  5 27  1  0  0  0  0
  5 31  1  1  0  0  0
  6  7  1  1  0  0  0
  6 11  1  0  0  0  0
  8 13  1  0  0  0  0
  9 10  1  1  0  0  0
  9 15  1  0  0  0  0
 11 12  1  6  0  0  0
 11 17  1  0  0  0  0
 13 14  1  1  0  0  0
 13 19  1  0  0  0  0
 15 16  1  6  0  0  0
 15 20  1  0  0  0  0
 16 34  1  0  0  0  0
 17 18  1  1  0  0  0
 17 22  1  0  0  0  0
 19  2  1  6  0  0  0
 19 24  1  0  0  0  0
 20 21  1  6  0  0  0
 20 26  1  0  0  0  0
 20 33  1  0  0  0  0
 22 23  1  6  0  0  0
 22 28  1  0  0  0  0
 24 25  1  1  0  0  0
 24 30  1  0  0  0  0
 26 27  1  0  0  0  0
 28 29  1  6  0  0  0
 28 32  1  0  0  0  0
 30 31  1  6  0  0  0
M  END
>  <CHROM.1>
-170.87776652,38.77059658,-87.08602873,178.35125457,-55.55442989,-157.05499301
20.59832238,29.45208484,36.84884711,-0.60938815,0.59153968,2.98840770

>  <Name>
ligand

>  <RI>
0

>  <Rbt.Current_Directory>
/home/itssahil/PROJECTS/Mol_Feturizer/New_Systems/rnas/4p3s

>  <Rbt.Executable>
rbdock ($Id: //depot/dev/client3/rdock/2013.1/src/exe/rbdock.cxx#4 $)

>  <Rbt.Library>
libRbt.so (2013.1, Build901 2013/11/27)

>  <Rbt.Parameter_File>
/export/apps/rDock/src/rDock_2013.1_src/data/scripts/dock_solv.prm

>  <Rbt.Receptor>
prm/pocket_docking_2.prm

>  <SCORE>
-2.02715

>  <SCORE.INTER>
-1.33705

>  <SCORE.INTER.CONST>
1

>  <SCORE.INTER.POLAR>
0

>  <SCORE.INTER.ROT>
6

>  <SCORE.INTER.SOLV>
19.9032

>  <SCORE.INTER.VDW>
-15.1258

>  <SCORE.INTER.norm>
-0.0393249

>  <SCORE.INTRA>
-1.88167

>  <SCORE.INTRA.DIHEDRAL>
-10.4015

>  <SCORE.INTRA.DIHEDRAL.0>
15.8194

>  <SCORE.INTRA.POLAR>
0

>  <SCORE.INTRA.POLAR.0>
0

>  <SCORE.INTRA.REPUL>
0

>  <SCORE.INTRA.REPUL.0>
0

>  <SCORE.INTRA.SOLV>
3.09628

>  <SCORE.INTRA.SOLV.lig_0>
-71.9159

>  <SCORE.INTRA.VDW>
1.77092

>  <SCORE.INTRA.VDW.0>
-3.53918

>  <SCORE.INTRA.norm>
-0.0553432

>  <SCORE.RESTR>
1.19156

>  <SCORE.RESTR.CAVITY>
1.19156

>  <SCORE.RESTR.norm>
0.0350459

>  <SCORE.SYSTEM>
0

>  <SCORE.SYSTEM.CONST>
0

>  <SCORE.SYSTEM.DIHEDRAL>
0

>  <SCORE.SYSTEM.SOLV>
0

>  <SCORE.SYSTEM.norm>
0

>  <SCORE.heavy>
34

>  <SCORE.norm>
-0.0596222

>  <RMSD>
7.774

$$$$
ligand
 OpenBabel01301917533D
libRbt.so/2013.1/901 2013/11/27
 34 36  0  0  0  0  0  0  0  0999 V2000
   23.7843   32.7805   35.6442 C   0  0  2  0  0  0  0  0  0  0  0  0
   23.4971   31.3916   35.4525 O   0  0  0  0  0  0  0  0  0  0  0  0
   22.8114   28.1072   38.1255 C   0  0  2  0  0  0  0  0  0  0  0  0
   22.3292   27.3017   39.2557 N   0  0  0  0  0  0  0  0  0  0  0  0
   19.6154   26.9856   37.0882 C   0  0  2  0  0  0  0  0  0  0  0  0
   22.5437   33.4418   36.3542 C   0  0  2  0  0  0  0  0  0  0  0  0
   22.2710   32.7928   37.6466 N   0  0  0  0  0  0  0  0  0  0  0  0
   23.5062   29.3884   38.7129 C   0  0  0  0  0  0  0  0  0  0  0  0
   19.2930   25.6105   36.3806 C   0  0  2  0  0  0  0  0  0  0  0  0
   20.1927   24.6077   36.8206 O   0  0  0  0  0  0  0  0  0  0  0  0
   21.2878   33.3542   35.4354 C   0  0  1  0  0  0  0  0  0  0  0  0
   20.1512   33.9575   36.0807 O   0  0  0  0  0  0  0  0  0  0  0  0
   24.0379   30.2383   37.5057 C   0  0  2  0  0  0  0  0  0  0  0  0
   24.7074   31.4789   37.9907 N   0  0  0  0  0  0  0  0  0  0  0  0
   19.4239   25.8168   34.8242 C   0  0  1  0  0  0  0  0  0  0  0  0
   19.1693   24.5537   34.1026 N   0  0  0  0  0  0  0  0  0  0  0  0
   21.6162   34.0484   34.0929 C   0  0  2  0  0  0  0  0  0  0  0  0
   20.4703   33.9898   33.2377 O   0  0  0  0  0  0  0  0  0  0  0  0
   22.8718   30.6369   36.5515 C   0  0  2  0  0  0  0  0  0  0  0  0
   18.4120   26.9160   34.3700 C   0  0  1  0  0  0  0  0  0  0  0  0
   17.0942   26.4623   34.6614 O   0  0  0  0  0  0  0  0  0  0  0  0
   22.8716   33.3267   33.4377 C   0  0  2  0  0  0  0  0  0  0  0  0
   24.0419   33.3892   34.3412 O   0  0  0  0  0  0  0  0  0  0  0  0
   22.1663   29.3501   36.0438 C   0  0  2  0  0  0  0  0  0  0  0  0
   21.0861   29.7430   35.1996 O   0  0  0  0  0  0  0  0  0  0  0  0
   18.7092   28.2323   35.1576 C   0  0  0  0  0  0  0  0  0  0  0  0
   18.6579   28.0078   36.6222 O   0  0  0  0  0  0  0  0  0  0  0  0
   23.2844   33.9595   32.0777 C   0  0  2  0  0  0  0  0  0  0  0  0
   23.0481   35.3709   32.1230 O   0  0  0  0  0  0  0  0  0  0  0  0
   21.5801   28.5160   37.2095 C   0  0  1  0  0  0  0  0  0  0  0  0
   20.9671   27.3258   36.6419 O   0  0  0  0  0  0  0  0  0  0  0  0
   22.4916   33.3936   30.9202 C   0  0  0  0  0  0  0  0  0  0  0  0
   18.4921   27.1898   32.8674 C   0  0  0  0  0  0  0  0  0  0  0  0
   20.2402   24.3979   33.0879 C   0  0  0  0  0  0  0  0  0  0  0  0
  1  2  1  6  0  0  0
  1  6  1  0  0  0  0
  1 23  1  0  0  0  0
  3  4  1  1  0  0  0
  3  8  1  0  0  0  0
  3 30  1  0  0  0  0
  5  9  1  0  0  0  0
  5 27  1  0  0  0  0
  5 31  1  6  0  0  0
  6  7  1  1  0  0  0
  6 11  1  0  0  0  0
  8 13  1  0  0  0  0
  9 10  1  1  0  0  0
  9 15  1  0  0  0  0
 11 12  1  1  0  0  0
 11 17  1  0  0  0  0
 13 14  1  1  0  0  0
 13 19  1  0  0  0  0
 15 16  1  6  0  0  0
 15 20  1  0  0  0  0
 16 34  1  0  0  0  0
 17 18  1  6  0  0  0
 17 22  1  0  0  0  0
 19  2  1  6  0  0  0
 19 24  1  0  0  0  0
 20 21  1  1  0  0  0
 20 26  1  0  0  0  0
 20 33  1  0  0  0  0
 22 23  1  1  0  0  0
 22 28  1  0  0  0  0
 24 25  1  6  0  0  0
 24 30  1  0  0  0  0
 26 27  1  0  0  0  0
 28 29  1  1  0  0  0
 28 32  1  0  0  0  0
 30 31  1  6  0  0  0
M  END
>  <CHROM.1>
-43.37966846,-82.20258770,-133.64027084,34.50295238,112.78662135,-175.88834369
21.34530291,29.89279425,35.43374064,-0.91626264,0.88510464,2.43512422

>  <Name>
ligand

>  <RI>
0

>  <Rbt.Current_Directory>
/home/itssahil/PROJECTS/Mol_Feturizer/New_Systems/rnas/4p3s

>  <Rbt.Executable>
rbdock ($Id: //depot/dev/client3/rdock/2013.1/src/exe/rbdock.cxx#4 $)

>  <Rbt.Library>
libRbt.so (2013.1, Build901 2013/11/27)

>  <Rbt.Parameter_File>
/export/apps/rDock/src/rDock_2013.1_src/data/scripts/dock_solv.prm

>  <Rbt.Receptor>
prm/blind_docking_80.prm

>  <SCORE>
5.76064

>  <SCORE.INTER>
-3.47354

>  <SCORE.INTER.CONST>
1

>  <SCORE.INTER.POLAR>
0

>  <SCORE.INTER.ROT>
6

>  <SCORE.INTER.SOLV>
17.1469

>  <SCORE.INTER.VDW>
-15.6313

>  <SCORE.INTER.norm>
-0.102163

>  <SCORE.INTRA>
4.9263

>  <SCORE.INTRA.DIHEDRAL>
-2.28088

>  <SCORE.INTRA.DIHEDRAL.0>
15.8194

>  <SCORE.INTRA.POLAR>
0

>  <SCORE.INTRA.POLAR.0>
0

>  <SCORE.INTRA.REPUL>
0

>  <SCORE.INTRA.REPUL.0>
0

>  <SCORE.INTRA.SOLV>
4.87201

>  <SCORE.INTRA.SOLV.lig_0>
-71.9159

>  <SCORE.INTRA.VDW>
3.63073

>  <SCORE.INTRA.VDW.0>
-3.53918

>  <SCORE.INTRA.norm>
0.144891

>  <SCORE.RESTR>
4.30789

>  <SCORE.RESTR.CAVITY>
4.30789

>  <SCORE.RESTR.norm>
0.126703

>  <SCORE.SYSTEM>
0

>  <SCORE.SYSTEM.CONST>
0

>  <SCORE.SYSTEM.DIHEDRAL>
0

>  <SCORE.SYSTEM.SOLV>
0

>  <SCORE.SYSTEM.norm>
0

>  <SCORE.heavy>
34

>  <SCORE.norm>
0.169431

>  <RMSD>
7.813

$$$$
ligand
 OpenBabel01301917533D
libRbt.so/2013.1/901 2013/11/27
 34 36  0  0  0  0  0  0  0  0999 V2000
   23.0781   30.1285   36.6248 C   0  0  2  0  0  0  0  0  0  0  0  0
   22.3972   30.0028   37.8772 O   0  0  0  0  0  0  0  0  0  0  0  0
   20.8440   26.0617   37.2011 C   0  0  2  0  0  0  0  0  0  0  0  0
   20.2034   24.7564   37.4117 N   0  0  0  0  0  0  0  0  0  0  0  0
   19.1034   27.4630   34.9657 C   0  0  2  0  0  0  0  0  0  0  0  0
   23.9624   31.4307   36.6786 C   0  0  2  0  0  0  0  0  0  0  0  0
   24.9323   31.3613   37.7834 N   0  0  0  0  0  0  0  0  0  0  0  0
   21.9714   26.2218   38.2840 C   0  0  0  0  0  0  0  0  0  0  0  0
   17.7592   27.3492   34.1439 C   0  0  2  0  0  0  0  0  0  0  0  0
   16.7972   28.2614   34.6449 O   0  0  0  0  0  0  0  0  0  0  0  0
   23.0576   32.6896   36.8387 C   0  0  1  0  0  0  0  0  0  0  0  0
   23.8620   33.8824   36.8886 O   0  0  0  0  0  0  0  0  0  0  0  0
   22.6677   27.6077   38.0461 C   0  0  2  0  0  0  0  0  0  0  0  0
   23.7501   27.8309   39.0466 N   0  0  0  0  0  0  0  0  0  0  0  0
   17.2290   25.8711   34.2722 C   0  0  1  0  0  0  0  0  0  0  0  0
   15.9497   25.7066   33.5530 N   0  0  0  0  0  0  0  0  0  0  0  0
   22.0579   32.7249   35.6591 C   0  0  2  0  0  0  0  0  0  0  0  0
   21.2242   33.8817   35.7806 O   0  0  0  0  0  0  0  0  0  0  0  0
   21.6371   28.7721   38.1526 C   0  0  2  0  0  0  0  0  0  0  0  0
   18.3040   24.8937   33.7002 C   0  0  1  0  0  0  0  0  0  0  0  0
   18.4951   25.1924   32.3212 O   0  0  0  0  0  0  0  0  0  0  0  0
   21.2032   31.3850   35.6728 C   0  0  2  0  0  0  0  0  0  0  0  0
   22.0838   30.2012   35.5568 O   0  0  0  0  0  0  0  0  0  0  0  0
   20.5037   28.5459   37.1154 C   0  0  2  0  0  0  0  0  0  0  0  0
   19.5600   29.6059   37.2551 O   0  0  0  0  0  0  0  0  0  0  0  0
   19.6415   25.1011   34.4810 C   0  0  0  0  0  0  0  0  0  0  0  0
   20.0904   26.5127   34.4165 O   0  0  0  0  0  0  0  0  0  0  0  0
   20.1663   31.3236   34.5146 C   0  0  2  0  0  0  0  0  0  0  0  0
   19.3952   30.1231   34.6349 O   0  0  0  0  0  0  0  0  0  0  0  0
   19.7585   27.2102   37.3582 C   0  0  1  0  0  0  0  0  0  0  0  0
   18.7400   27.0746   36.3292 O   0  0  0  0  0  0  0  0  0  0  0  0
   20.8287   31.3148   33.1545 C   0  0  0  0  0  0  0  0  0  0  0  0
   17.8706   23.4310   33.8074 C   0  0  0  0  0  0  0  0  0  0  0  0
   14.9424   25.2425   34.5382 C   0  0  0  0  0  0  0  0  0  0  0  0
  1  2  1  1  0  0  0
  1  6  1  0  0  0  0
  1 23  1  0  0  0  0
  3  4  1  1  0  0  0
  3  8  1  0  0  0  0
  3 30  1  0  0  0  0
  5  9  1  0  0  0  0
  5 27  1  0  0  0  0
  5 31  1  1  0  0  0
  6  7  1  1  0  0  0
  6 11  1  0  0  0  0
  8 13  1  0  0  0  0
  9 10  1  1  0  0  0
  9 15  1  0  0  0  0
 11 12  1  6  0  0  0
 11 17  1  0  0  0  0
 13 14  1  1  0  0  0
 13 19  1  0  0  0  0
 15 16  1  6  0  0  0
 15 20  1  0  0  0  0
 16 34  1  0  0  0  0
 17 18  1  1  0  0  0
 17 22  1  0  0  0  0
 19  2  1  6  0  0  0
 19 24  1  0  0  0  0
 20 21  1  6  0  0  0
 20 26  1  0  0  0  0
 20 33  1  0  0  0  0
 22 23  1  6  0  0  0
 22 28  1  0  0  0  0
 24 25  1  1  0  0  0
 24 30  1  0  0  0  0
 26 27  1  0  0  0  0
 28 29  1  1  0  0  0
 28 32  1  0  0  0  0
 30 31  1  6  0  0  0
M  END
>  <CHROM.1>
-172.16071533,58.60178340,-121.77177024,-177.16197365,-74.20349473,-174.01875326
20.38539240,28.52821351,35.81807290,-0.64068480,0.69912495,2.80145854

>  <Name>
ligand

>  <RI>
0

>  <Rbt.Current_Directory>
/home/itssahil/PROJECTS/Mol_Feturizer/New_Systems/rnas/4p3s

>  <Rbt.Executable>
rbdock ($Id: //depot/dev/client3/rdock/2013.1/src/exe/rbdock.cxx#4 $)

>  <Rbt.Library>
libRbt.so (2013.1, Build901 2013/11/27)

>  <Rbt.Parameter_File>
/export/apps/rDock/src/rDock_2013.1_src/data/scripts/dock_solv.prm

>  <Rbt.Receptor>
prm/pocket_docking_2.prm

>  <SCORE>
-6.72551

>  <SCORE.INTER>
-5.74944

>  <SCORE.INTER.CONST>
1

>  <SCORE.INTER.POLAR>
0

>  <SCORE.INTER.ROT>
6

>  <SCORE.INTER.SOLV>
24.2248

>  <SCORE.INTER.VDW>
-19.5079

>  <SCORE.INTER.norm>
-0.169101

>  <SCORE.INTRA>
-3.00389

>  <SCORE.INTRA.DIHEDRAL>
-13.0547

>  <SCORE.INTRA.DIHEDRAL.0>
15.8194

>  <SCORE.INTRA.POLAR>
0

>  <SCORE.INTRA.POLAR.0>
0

>  <SCORE.INTRA.REPUL>
0.00520956

>  <SCORE.INTRA.REPUL.0>
0

>  <SCORE.INTRA.SOLV>
3.06788

>  <SCORE.INTRA.SOLV.lig_0>
-71.9159

>  <SCORE.INTRA.VDW>
1.96345

>  <SCORE.INTRA.VDW.0>
-3.53918

>  <SCORE.INTRA.norm>
-0.0883498

>  <SCORE.RESTR>
2.02782

>  <SCORE.RESTR.CAVITY>
2.02782

>  <SCORE.RESTR.norm>
0.0596417

>  <SCORE.SYSTEM>
0

>  <SCORE.SYSTEM.CONST>
0

>  <SCORE.SYSTEM.DIHEDRAL>
0

>  <SCORE.SYSTEM.SOLV>
0

>  <SCORE.SYSTEM.norm>
0

>  <SCORE.heavy>
34

>  <SCORE.norm>
-0.197809

>  <RMSD>
7.863

$$$$
ligand
 OpenBabel01301917533D
libRbt.so/2013.1/901 2013/11/27
 34 36  0  0  0  0  0  0  0  0999 V2000
   22.3320   30.4248   38.5728 C   0  0  2  0  0  0  0  0  0  0  0  0
   22.7414   30.5691   37.2090 O   0  0  0  0  0  0  0  0  0  0  0  0
   19.2951   32.6504   35.7282 C   0  0  2  0  0  0  0  0  0  0  0  0
   18.3179   33.2691   34.8221 N   0  0  0  0  0  0  0  0  0  0  0  0
   17.0570   30.2777   34.7569 C   0  0  2  0  0  0  0  0  0  0  0  0
   23.5803   30.7102   39.4898 C   0  0  2  0  0  0  0  0  0  0  0  0
   24.1062   32.0644   39.2541 N   0  0  0  0  0  0  0  0  0  0  0  0
   20.7069   33.2539   35.3937 C   0  0  0  0  0  0  0  0  0  0  0  0
   15.6427   30.1955   35.4556 C   0  0  2  0  0  0  0  0  0  0  0  0
   15.3247   31.4324   36.0701 O   0  0  0  0  0  0  0  0  0  0  0  0
   24.6932   29.6507   39.2290 C   0  0  1  0  0  0  0  0  0  0  0  0
   25.8365   29.9079   40.0652 O   0  0  0  0  0  0  0  0  0  0  0  0
   21.7466   32.6069   36.3749 C   0  0  2  0  0  0  0  0  0  0  0  0
   23.1166   33.1314   36.1097 N   0  0  0  0  0  0  0  0  0  0  0  0
   15.6935   29.0474   36.5334 C   0  0  1  0  0  0  0  0  0  0  0  0
   14.4073   28.9423   37.2514 N   0  0  0  0  0  0  0  0  0  0  0  0
   24.1004   28.2463   39.4900 C   0  0  2  0  0  0  0  0  0  0  0  0
   25.1111   27.2578   39.2676 O   0  0  0  0  0  0  0  0  0  0  0  0
   21.7639   31.0560   36.2213 C   0  0  2  0  0  0  0  0  0  0  0  0
   16.0321   27.6983   35.8238 C   0  0  1  0  0  0  0  0  0  0  0  0
   14.9940   27.4064   34.8939 O   0  0  0  0  0  0  0  0  0  0  0  0
   22.8522   28.0316   38.5298 C   0  0  2  0  0  0  0  0  0  0  0  0
   21.8240   29.0690   38.7679 O   0  0  0  0  0  0  0  0  0  0  0  0
   20.3392   30.5011   36.4928 C   0  0  2  0  0  0  0  0  0  0  0  0
   20.3755   29.0865   36.3152 O   0  0  0  0  0  0  0  0  0  0  0  0
   17.3936   27.8507   35.0725 C   0  0  0  0  0  0  0  0  0  0  0  0
   17.3579   28.9827   34.1156 O   0  0  0  0  0  0  0  0  0  0  0  0
   22.1806   26.6414   38.7214 C   0  0  2  0  0  0  0  0  0  0  0  0
   23.1365   25.6130   38.4405 O   0  0  0  0  0  0  0  0  0  0  0  0
   19.2975   31.0783   35.5028 C   0  0  1  0  0  0  0  0  0  0  0  0
   17.9983   30.5252   35.8500 O   0  0  0  0  0  0  0  0  0  0  0  0
   21.0014   26.4439   37.7946 C   0  0  0  0  0  0  0  0  0  0  0  0
   16.1196   26.5327   36.8099 C   0  0  0  0  0  0  0  0  0  0  0  0
   14.6076   29.5098   38.6073 C   0  0  0  0  0  0  0  0  0  0  0  0
  1  2  1  6  0  0  0
  1  6  1  0  0  0  0
  1 23  1  0  0  0  0
  3  4  1  6  0  0  0
  3  8  1  0  0  0  0
  3 30  1  0  0  0  0
  5  9  1  0  0  0  0
  5 27  1  0  0  0  0
  5 31  1  1  0  0  0
  6  7  1  6  0  0  0
  6 11  1  0  0  0  0
  8 13  1  0  0  0  0
  9 10  1  1  0  0  0
  9 15  1  0  0  0  0
 11 12  1  1  0  0  0
 11 17  1  0  0  0  0
 13 14  1  6  0  0  0
 13 19  1  0  0  0  0
 15 16  1  6  0  0  0
 15 20  1  0  0  0  0
 16 34  1  0  0  0  0
 17 18  1  6  0  0  0
 17 22  1  0  0  0  0
 19  2  1  1  0  0  0
 19 24  1  0  0  0  0
 20 21  1  6  0  0  0
 20 26  1  0  0  0  0
 20 33  1  0  0  0  0
 22 23  1  1  0  0  0
 22 28  1  0  0  0  0
 24 25  1  6  0  0  0
 24 30  1  0  0  0  0
 26 27  1  0  0  0  0
 28 29  1  6  0  0  0
 28 32  1  0  0  0  0
 30 31  1  1  0  0  0
M  END
>  <CHROM.1>
-148.14088696,81.31848501,-105.89115158,-59.99755062,97.93754634,-160.31145885
20.02787020,29.65001247,37.03711054,-0.11264195,-0.33831976,-0.33603394

>  <Name>
ligand

>  <RI>
0

>  <Rbt.Current_Directory>
/home/itssahil/PROJECTS/Mol_Feturizer/New_Systems/rnas/4p3s

>  <Rbt.Executable>
rbdock ($Id: //depot/dev/client3/rdock/2013.1/src/exe/rbdock.cxx#4 $)

>  <Rbt.Library>
libRbt.so (2013.1, Build901 2013/11/27)

>  <Rbt.Parameter_File>
/export/apps/rDock/src/rDock_2013.1_src/data/scripts/dock_solv.prm

>  <Rbt.Receptor>
prm/pocket_docking_5.prm

>  <SCORE>
-3.58533

>  <SCORE.INTER>
-3.30005

>  <SCORE.INTER.CONST>
1

>  <SCORE.INTER.POLAR>
0

>  <SCORE.INTER.ROT>
6

>  <SCORE.INTER.SOLV>
13.2057

>  <SCORE.INTER.VDW>
-14.2019

>  <SCORE.INTER.norm>
-0.0970602

>  <SCORE.INTRA>
-0.285286

>  <SCORE.INTRA.DIHEDRAL>
-2.00161

>  <SCORE.INTRA.DIHEDRAL.0>
15.8194

>  <SCORE.INTRA.POLAR>
0

>  <SCORE.INTRA.POLAR.0>
0

>  <SCORE.INTRA.REPUL>
0

>  <SCORE.INTRA.REPUL.0>
0

>  <SCORE.INTRA.SOLV>
1.49072

>  <SCORE.INTRA.SOLV.lig_0>
-71.9159

>  <SCORE.INTRA.VDW>
-0.0298399

>  <SCORE.INTRA.VDW.0>
-3.53918

>  <SCORE.INTRA.norm>
-0.00839076

>  <SCORE.RESTR>
0

>  <SCORE.RESTR.CAVITY>
0

>  <SCORE.RESTR.norm>
0

>  <SCORE.SYSTEM>
0

>  <SCORE.SYSTEM.CONST>
0

>  <SCORE.SYSTEM.DIHEDRAL>
0

>  <SCORE.SYSTEM.SOLV>
0

>  <SCORE.SYSTEM.norm>
0

>  <SCORE.heavy>
34

>  <SCORE.norm>
-0.105451

>  <RMSD>
7.868

$$$$
ligand
 OpenBabel01301917533D
libRbt.so/2013.1/901 2013/11/27
 34 36  0  0  0  0  0  0  0  0999 V2000
   21.6326   30.9948   39.3747 C   0  0  2  0  0  0  0  0  0  0  0  0
   21.7718   29.7640   38.6579 O   0  0  0  0  0  0  0  0  0  0  0  0
   19.2962   27.9607   35.6542 C   0  0  2  0  0  0  0  0  0  0  0  0
   18.1946   27.2472   34.9939 N   0  0  0  0  0  0  0  0  0  0  0  0
   17.0983   29.7324   34.4516 C   0  0  2  0  0  0  0  0  0  0  0  0
   23.0719   31.5932   39.6008 C   0  0  2  0  0  0  0  0  0  0  0  0
   23.7523   31.8235   38.3163 N   0  0  0  0  0  0  0  0  0  0  0  0
   19.8602   27.0280   36.7862 C   0  0  0  0  0  0  0  0  0  0  0  0
   16.8000   30.9087   33.4403 C   0  0  2  0  0  0  0  0  0  0  0  0
   17.8944   31.0888   32.5581 O   0  0  0  0  0  0  0  0  0  0  0  0
   23.9193   30.6353   40.4915 C   0  0  1  0  0  0  0  0  0  0  0  0
   25.2359   31.1785   40.7006 O   0  0  0  0  0  0  0  0  0  0  0  0
   21.0491   27.7831   37.4779 C   0  0  2  0  0  0  0  0  0  0  0  0
   21.6319   26.9554   38.5723 N   0  0  0  0  0  0  0  0  0  0  0  0
   16.5493   32.2216   34.2745 C   0  0  1  0  0  0  0  0  0  0  0  0
   16.2993   33.3719   33.3828 N   0  0  0  0  0  0  0  0  0  0  0  0
   23.1712   30.4230   41.8284 C   0  0  2  0  0  0  0  0  0  0  0  0
   23.9394   29.5546   42.6672 O   0  0  0  0  0  0  0  0  0  0  0  0
   20.5714   29.1413   38.0752 C   0  0  2  0  0  0  0  0  0  0  0  0
   15.3312   31.9954   35.2249 C   0  0  1  0  0  0  0  0  0  0  0  0
   14.1808   31.7343   34.4274 O   0  0  0  0  0  0  0  0  0  0  0  0
   21.7347   29.8167   41.5199 C   0  0  2  0  0  0  0  0  0  0  0  0
   20.9608   30.7240   40.6435 O   0  0  0  0  0  0  0  0  0  0  0  0
   19.9596   30.0091   36.9421 C   0  0  2  0  0  0  0  0  0  0  0  0
   19.5029   31.2305   37.5196 O   0  0  0  0  0  0  0  0  0  0  0  0
   15.6305   30.7697   36.1465 C   0  0  0  0  0  0  0  0  0  0  0  0
   15.9397   29.5584   35.3495 O   0  0  0  0  0  0  0  0  0  0  0  0
   20.8988   29.5703   42.8087 C   0  0  2  0  0  0  0  0  0  0  0  0
   19.6681   28.9284   42.4571 O   0  0  0  0  0  0  0  0  0  0  0  0
   18.7463   29.3149   36.2756 C   0  0  1  0  0  0  0  0  0  0  0  0
   18.2606   30.1855   35.2169 O   0  0  0  0  0  0  0  0  0  0  0  0
   20.5612   30.8588   43.5258 C   0  0  0  0  0  0  0  0  0  0  0  0
   15.0350   33.2234   36.0870 C   0  0  0  0  0  0  0  0  0  0  0  0
   17.5023   34.2389   33.4279 C   0  0  0  0  0  0  0  0  0  0  0  0
  1  2  1  1  0  0  0
  1  6  1  0  0  0  0
  1 23  1  0  0  0  0
  3  4  1  1  0  0  0
  3  8  1  0  0  0  0
  3 30  1  0  0  0  0
  5  9  1  0  0  0  0
  5 27  1  0  0  0  0
  5 31  1  1  0  0  0
  6  7  1  6  0  0  0
  6 11  1  0  0  0  0
  8 13  1  0  0  0  0
  9 10  1  6  0  0  0
  9 15  1  0  0  0  0
 11 12  1  1  0  0  0
 11 17  1  0  0  0  0
 13 14  1  1  0  0  0
 13 19  1  0  0  0  0
 15 16  1  6  0  0  0
 15 20  1  0  0  0  0
 16 34  1  0  0  0  0
 17 18  1  1  0  0  0
 17 22  1  0  0  0  0
 19  2  1  6  0  0  0
 19 24  1  0  0  0  0
 20 21  1  6  0  0  0
 20 26  1  0  0  0  0
 20 33  1  0  0  0  0
 22 23  1  6  0  0  0
 22 28  1  0  0  0  0
 24 25  1  1  0  0  0
 24 30  1  0  0  0  0
 26 27  1  0  0  0  0
 28 29  1  6  0  0  0
 28 32  1  0  0  0  0
 30 31  1  6  0  0  0
M  END
>  <CHROM.1>
-167.47026067,-175.54250366,-107.44843879,-175.44846903,65.14354779,177.88967038
19.56861238,30.36046133,37.62946578,0.20436100,-0.82438517,0.46480153

>  <Name>
ligand

>  <RI>
0

>  <Rbt.Current_Directory>
/home/itssahil/PROJECTS/Mol_Feturizer/New_Systems/rnas/4p3s

>  <Rbt.Executable>
rbdock ($Id: //depot/dev/client3/rdock/2013.1/src/exe/rbdock.cxx#4 $)

>  <Rbt.Library>
libRbt.so (2013.1, Build901 2013/11/27)

>  <Rbt.Parameter_File>
/export/apps/rDock/src/rDock_2013.1_src/data/scripts/dock_solv.prm

>  <Rbt.Receptor>
prm/pocket_docking_6.prm

>  <SCORE>
-7.986

>  <SCORE.INTER>
-2.05425

>  <SCORE.INTER.CONST>
1

>  <SCORE.INTER.POLAR>
0

>  <SCORE.INTER.ROT>
6

>  <SCORE.INTER.SOLV>
8.93888

>  <SCORE.INTER.VDW>
-11.9491

>  <SCORE.INTER.norm>
-0.0604191

>  <SCORE.INTRA>
-5.93175

>  <SCORE.INTRA.DIHEDRAL>
-13.5492

>  <SCORE.INTRA.DIHEDRAL.0>
15.8194

>  <SCORE.INTRA.POLAR>
0

>  <SCORE.INTRA.POLAR.0>
0

>  <SCORE.INTRA.REPUL>
0

>  <SCORE.INTRA.REPUL.0>
0

>  <SCORE.INTRA.SOLV>
-0.615906

>  <SCORE.INTRA.SOLV.lig_0>
-71.9159

>  <SCORE.INTRA.VDW>
1.15082

>  <SCORE.INTRA.VDW.0>
-3.53918

>  <SCORE.INTRA.norm>
-0.174463

>  <SCORE.RESTR>
0

>  <SCORE.RESTR.CAVITY>
0

>  <SCORE.RESTR.norm>
0

>  <SCORE.SYSTEM>
0

>  <SCORE.SYSTEM.CONST>
0

>  <SCORE.SYSTEM.DIHEDRAL>
0

>  <SCORE.SYSTEM.SOLV>
0

>  <SCORE.SYSTEM.norm>
0

>  <SCORE.heavy>
34

>  <SCORE.norm>
-0.234882

>  <RMSD>
7.937

$$$$
ligand
 OpenBabel01301917533D
libRbt.so/2013.1/901 2013/11/27
 34 36  0  0  0  0  0  0  0  0999 V2000
   23.6311   31.7210   36.4778 C   0  0  2  0  0  0  0  0  0  0  0  0
   22.4110   31.4522   37.1758 O   0  0  0  0  0  0  0  0  0  0  0  0
   22.7553   27.1773   37.2671 C   0  0  2  0  0  0  0  0  0  0  0  0
   22.6185   25.7721   37.6737 N   0  0  0  0  0  0  0  0  0  0  0  0
   20.0754   25.7921   35.9351 C   0  0  2  0  0  0  0  0  0  0  0  0
   24.1004   33.1756   36.8578 C   0  0  2  0  0  0  0  0  0  0  0  0
   24.3042   33.2988   38.3102 N   0  0  0  0  0  0  0  0  0  0  0  0
   23.3227   27.9777   38.4946 C   0  0  0  0  0  0  0  0  0  0  0  0
   19.2765   25.5374   34.5963 C   0  0  2  0  0  0  0  0  0  0  0  0
   20.1741   25.3208   33.5212 O   0  0  0  0  0  0  0  0  0  0  0  0
   23.0529   34.2230   36.3734 C   0  0  1  0  0  0  0  0  0  0  0  0
   23.4779   35.5543   36.7189 O   0  0  0  0  0  0  0  0  0  0  0  0
   23.4867   29.4745   38.0532 C   0  0  2  0  0  0  0  0  0  0  0  0
   24.0181   30.2985   39.1761 N   0  0  0  0  0  0  0  0  0  0  0  0
   18.3789   26.8007   34.3124 C   0  0  1  0  0  0  0  0  0  0  0  0
   17.6301   26.6410   33.0496 N   0  0  0  0  0  0  0  0  0  0  0  0
   22.8714   34.0608   34.8460 C   0  0  2  0  0  0  0  0  0  0  0  0
   21.9210   35.0230   34.3782 O   0  0  0  0  0  0  0  0  0  0  0  0
   22.1214   30.0706   37.5948 C   0  0  2  0  0  0  0  0  0  0  0  0
   17.3938   27.0034   35.5068 C   0  0  1  0  0  0  0  0  0  0  0  0
   16.5539   25.8572   35.5968 O   0  0  0  0  0  0  0  0  0  0  0  0
   22.3960   32.5749   34.5424 C   0  0  2  0  0  0  0  0  0  0  0  0
   23.3866   31.5959   35.0428 O   0  0  0  0  0  0  0  0  0  0  0  0
   21.5587   29.2160   36.4267 C   0  0  2  0  0  0  0  0  0  0  0  0
   20.2972   29.7628   36.0480 O   0  0  0  0  0  0  0  0  0  0  0  0
   18.2215   27.1626   36.8225 C   0  0  0  0  0  0  0  0  0  0  0  0
   19.1185   26.0022   37.0392 O   0  0  0  0  0  0  0  0  0  0  0  0
   22.1891   32.3104   33.0234 C   0  0  2  0  0  0  0  0  0  0  0  0
   23.1308   33.0885   32.2764 O   0  0  0  0  0  0  0  0  0  0  0  0
   21.3319   27.7430   36.8475 C   0  0  1  0  0  0  0  0  0  0  0  0
   20.8325   27.0202   35.6887 O   0  0  0  0  0  0  0  0  0  0  0  0
   20.8007   32.6934   32.5607 C   0  0  0  0  0  0  0  0  0  0  0  0
   16.4974   28.2276   35.3151 C   0  0  0  0  0  0  0  0  0  0  0  0
   18.5892   26.8416   31.9358 C   0  0  0  0  0  0  0  0  0  0  0  0
  1  2  1  1  0  0  0
  1  6  1  0  0  0  0
  1 23  1  0  0  0  0
  3  4  1  1  0  0  0
  3  8  1  0  0  0  0
  3 30  1  0  0  0  0
  5  9  1  0  0  0  0
  5 27  1  0  0  0  0
  5 31  1  6  0  0  0
  6  7  1  1  0  0  0
  6 11  1  0  0  0  0
  8 13  1  0  0  0  0
  9 10  1  6  0  0  0
  9 15  1  0  0  0  0
 11 12  1  6  0  0  0
 11 17  1  0  0  0  0
 13 14  1  1  0  0  0
 13 19  1  0  0  0  0
 15 16  1  6  0  0  0
 15 20  1  0  0  0  0
 16 34  1  0  0  0  0
 17 18  1  1  0  0  0
 17 22  1  0  0  0  0
 19  2  1  6  0  0  0
 19 24  1  0  0  0  0
 20 21  1  1  0  0  0
 20 26  1  0  0  0  0
 20 33  1  0  0  0  0
 22 23  1  6  0  0  0
 22 28  1  0  0  0  0
 24 25  1  1  0  0  0
 24 30  1  0  0  0  0
 26 27  1  0  0  0  0
 28 29  1  6  0  0  0
 28 32  1  0  0  0  0
 30 31  1  6  0  0  0
M  END
>  <CHROM.1>
-148.10262574,38.27663790,-74.95639157,32.83336376,87.46407049,161.08035987
21.20769807,29.61849399,35.71294491,-0.69557270,0.79964555,2.52864062

>  <Name>
ligand

>  <RI>
0

>  <Rbt.Current_Directory>
/home/itssahil/PROJECTS/Mol_Feturizer/New_Systems/rnas/4p3s

>  <Rbt.Executable>
rbdock ($Id: //depot/dev/client3/rdock/2013.1/src/exe/rbdock.cxx#4 $)

>  <Rbt.Library>
libRbt.so (2013.1, Build901 2013/11/27)

>  <Rbt.Parameter_File>
/export/apps/rDock/src/rDock_2013.1_src/data/scripts/dock_solv.prm

>  <Rbt.Receptor>
prm/blind_docking_80.prm

>  <SCORE>
14.9526

>  <SCORE.INTER>
9.29425

>  <SCORE.INTER.CONST>
1

>  <SCORE.INTER.POLAR>
0

>  <SCORE.INTER.ROT>
6

>  <SCORE.INTER.SOLV>
25.5617

>  <SCORE.INTER.VDW>
-9.92441

>  <SCORE.INTER.norm>
0.27336

>  <SCORE.INTRA>
3.35469

>  <SCORE.INTRA.DIHEDRAL>
-2.55346

>  <SCORE.INTRA.DIHEDRAL.0>
15.8194

>  <SCORE.INTRA.POLAR>
0

>  <SCORE.INTRA.POLAR.0>
0

>  <SCORE.INTRA.REPUL>
0

>  <SCORE.INTRA.REPUL.0>
0

>  <SCORE.INTRA.SOLV>
2.44058

>  <SCORE.INTRA.SOLV.lig_0>
-71.9159

>  <SCORE.INTRA.VDW>
3.41113

>  <SCORE.INTRA.VDW.0>
-3.53918

>  <SCORE.INTRA.norm>
0.0986673

>  <SCORE.RESTR>
2.30371

>  <SCORE.RESTR.CAVITY>
2.30371

>  <SCORE.RESTR.norm>
0.0677563

>  <SCORE.SYSTEM>
0

>  <SCORE.SYSTEM.CONST>
0

>  <SCORE.SYSTEM.DIHEDRAL>
0

>  <SCORE.SYSTEM.SOLV>
0

>  <SCORE.SYSTEM.norm>
0

>  <SCORE.heavy>
34

>  <SCORE.norm>
0.439784

>  <RMSD>
7.957

$$$$
ligand
 OpenBabel01301917533D
libRbt.so/2013.1/901 2013/11/27
 34 36  0  0  0  0  0  0  0  0999 V2000
   20.3702   25.9357   40.8693 C   0  0  2  0  0  0  0  0  0  0  0  0
   20.1473   27.1584   41.5789 O   0  0  0  0  0  0  0  0  0  0  0  0
   17.6163   30.3517   40.2376 C   0  0  2  0  0  0  0  0  0  0  0  0
   17.1476   31.5943   39.6092 N   0  0  0  0  0  0  0  0  0  0  0  0
   16.5418   29.9865   37.2820 C   0  0  2  0  0  0  0  0  0  0  0  0
   20.8626   24.8543   41.9031 C   0  0  2  0  0  0  0  0  0  0  0  0
   19.8662   24.6537   42.9675 N   0  0  0  0  0  0  0  0  0  0  0  0
   18.8005   30.7203   41.2025 C   0  0  0  0  0  0  0  0  0  0  0  0
   15.5400   29.2081   36.3408 C   0  0  2  0  0  0  0  0  0  0  0  0
   14.4298   28.7376   37.0855 O   0  0  0  0  0  0  0  0  0  0  0  0
   22.2275   25.2829   42.5214 C   0  0  1  0  0  0  0  0  0  0  0  0
   22.6813   24.2972   43.4673 O   0  0  0  0  0  0  0  0  0  0  0  0
   19.2875   29.3953   41.8876 C   0  0  2  0  0  0  0  0  0  0  0  0
   20.4200   29.6698   42.8174 N   0  0  0  0  0  0  0  0  0  0  0  0
   16.3146   27.9989   35.6925 C   0  0  1  0  0  0  0  0  0  0  0  0
   15.4206   27.2054   34.8254 N   0  0  0  0  0  0  0  0  0  0  0  0
   23.2432   25.4799   41.3718 C   0  0  2  0  0  0  0  0  0  0  0  0
   24.5088   25.8625   41.9196 O   0  0  0  0  0  0  0  0  0  0  0  0
   19.7529   28.3579   40.8214 C   0  0  2  0  0  0  0  0  0  0  0  0
   17.5214   28.5507   34.8694 C   0  0  1  0  0  0  0  0  0  0  0  0
   17.0146   29.3794   33.8284 O   0  0  0  0  0  0  0  0  0  0  0  0
   22.6805   26.5831   40.3756 C   0  0  2  0  0  0  0  0  0  0  0  0
   21.3677   26.1737   39.8287 O   0  0  0  0  0  0  0  0  0  0  0  0
   18.5796   28.0684   39.8461 C   0  0  2  0  0  0  0  0  0  0  0  0
   19.0405   27.1424   38.8643 O   0  0  0  0  0  0  0  0  0  0  0  0
   18.4391   29.3872   35.8179 C   0  0  0  0  0  0  0  0  0  0  0  0
   17.6808   30.4753   36.4805 O   0  0  0  0  0  0  0  0  0  0  0  0
   23.6346   26.8505   39.1762 C   0  0  2  0  0  0  0  0  0  0  0  0
   23.0846   27.8890   38.3582 O   0  0  0  0  0  0  0  0  0  0  0  0
   18.1123   29.3486   39.1106 C   0  0  1  0  0  0  0  0  0  0  0  0
   17.0013   28.9853   38.2456 O   0  0  0  0  0  0  0  0  0  0  0  0
   23.8186   25.6251   38.3083 C   0  0  0  0  0  0  0  0  0  0  0  0
   18.3391   27.4321   34.2221 C   0  0  0  0  0  0  0  0  0  0  0  0
   15.3533   25.8358   35.3913 C   0  0  0  0  0  0  0  0  0  0  0  0
  1  2  1  1  0  0  0
  1  6  1  0  0  0  0
  1 23  1  0  0  0  0
  3  4  1  6  0  0  0
  3  8  1  0  0  0  0
  3 30  1  0  0  0  0
  5  9  1  0  0  0  0
  5 27  1  0  0  0  0
  5 31  1  1  0  0  0
  6  7  1  1  0  0  0
  6 11  1  0  0  0  0
  8 13  1  0  0  0  0
  9 10  1  1  0  0  0
  9 15  1  0  0  0  0
 11 12  1  1  0  0  0
 11 17  1  0  0  0  0
 13 14  1  1  0  0  0
 13 19  1  0  0  0  0
 15 16  1  6  0  0  0
 15 20  1  0  0  0  0
 16 34  1  0  0  0  0
 17 18  1  1  0  0  0
 17 22  1  0  0  0  0
 19  2  1  1  0  0  0
 19 24  1  0  0  0  0
 20 21  1  6  0  0  0
 20 26  1  0  0  0  0
 20 33  1  0  0  0  0
 22 23  1  6  0  0  0
 22 28  1  0  0  0  0
 24 25  1  6  0  0  0
 24 30  1  0  0  0  0
 26 27  1  0  0  0  0
 28 29  1  6  0  0  0
 28 32  1  0  0  0  0
 30 31  1  6  0  0  0
M  END
>  <CHROM.1>
176.52403425,167.68236615,-118.29039303,-177.72041038,74.70373640,169.82585894
19.33217764,27.76179981,39.00549106,-0.52396815,0.66329514,-1.91890305

>  <Name>
ligand

>  <RI>
0

>  <Rbt.Current_Directory>
/home/itssahil/PROJECTS/Mol_Feturizer/New_Systems/rnas/4p3s

>  <Rbt.Executable>
rbdock ($Id: //depot/dev/client3/rdock/2013.1/src/exe/rbdock.cxx#4 $)

>  <Rbt.Library>
libRbt.so (2013.1, Build901 2013/11/27)

>  <Rbt.Parameter_File>
/export/apps/rDock/src/rDock_2013.1_src/data/scripts/dock_solv.prm

>  <Rbt.Receptor>
prm/pocket_docking_7.prm

>  <SCORE>
-11.8733

>  <SCORE.INTER>
-6.82224

>  <SCORE.INTER.CONST>
1

>  <SCORE.INTER.POLAR>
0

>  <SCORE.INTER.ROT>
6

>  <SCORE.INTER.SOLV>
12.0356

>  <SCORE.INTER.VDW>
-16.16

>  <SCORE.INTER.norm>
-0.200654

>  <SCORE.INTRA>
-5.0511

>  <SCORE.INTRA.DIHEDRAL>
-12.2078

>  <SCORE.INTRA.DIHEDRAL.0>
15.8194

>  <SCORE.INTRA.POLAR>
0

>  <SCORE.INTRA.POLAR.0>
0

>  <SCORE.INTRA.REPUL>
0

>  <SCORE.INTRA.REPUL.0>
0

>  <SCORE.INTRA.SOLV>
-1.01041

>  <SCORE.INTRA.SOLV.lig_0>
-71.9159

>  <SCORE.INTRA.VDW>
1.55803

>  <SCORE.INTRA.VDW.0>
-3.53918

>  <SCORE.INTRA.norm>
-0.148562

>  <SCORE.RESTR>
0

>  <SCORE.RESTR.CAVITY>
0

>  <SCORE.RESTR.norm>
0

>  <SCORE.SYSTEM>
0

>  <SCORE.SYSTEM.CONST>
0

>  <SCORE.SYSTEM.DIHEDRAL>
0

>  <SCORE.SYSTEM.SOLV>
0

>  <SCORE.SYSTEM.norm>
0

>  <SCORE.heavy>
34

>  <SCORE.norm>
-0.349216

>  <RMSD>
7.966

$$$$
ligand
 OpenBabel01301917533D
libRbt.so/2013.1/901 2013/11/27
 34 36  0  0  0  0  0  0  0  0999 V2000
   20.4648   33.7238   38.6815 C   0  0  2  0  0  0  0  0  0  0  0  0
   19.3313   33.2364   37.9562 O   0  0  0  0  0  0  0  0  0  0  0  0
   18.3525   29.2166   36.8227 C   0  0  2  0  0  0  0  0  0  0  0  0
   18.3118   27.9388   36.0987 N   0  0  0  0  0  0  0  0  0  0  0  0
   20.2450   27.0156   37.9194 C   0  0  2  0  0  0  0  0  0  0  0  0
   20.1820   35.2210   39.0802 C   0  0  2  0  0  0  0  0  0  0  0  0
   18.9656   35.3245   39.9022 N   0  0  0  0  0  0  0  0  0  0  0  0
   18.0297   30.3599   35.7942 C   0  0  0  0  0  0  0  0  0  0  0  0
   20.6057   26.1615   39.1984 C   0  0  2  0  0  0  0  0  0  0  0  0
   19.5332   26.1852   40.1246 O   0  0  0  0  0  0  0  0  0  0  0  0
   20.0407   36.1010   37.8016 C   0  0  1  0  0  0  0  0  0  0  0  0
   19.7818   37.4706   38.1615 O   0  0  0  0  0  0  0  0  0  0  0  0
   18.0543   31.7223   36.5724 C   0  0  2  0  0  0  0  0  0  0  0  0
   17.7607   32.8583   35.6529 N   0  0  0  0  0  0  0  0  0  0  0  0
   21.9027   26.7754   39.8490 C   0  0  1  0  0  0  0  0  0  0  0  0
   22.2741   26.0415   41.0755 N   0  0  0  0  0  0  0  0  0  0  0  0
   21.3378   35.9653   36.9704 C   0  0  2  0  0  0  0  0  0  0  0  0
   21.2336   36.7764   35.7960 O   0  0  0  0  0  0  0  0  0  0  0  0
   19.4456   31.9582   37.2342 C   0  0  2  0  0  0  0  0  0  0  0  0
   23.0669   26.7223   38.8098 C   0  0  1  0  0  0  0  0  0  0  0  0
   23.3195   25.3587   38.4867 O   0  0  0  0  0  0  0  0  0  0  0  0
   21.5532   34.4336   36.6050 C   0  0  2  0  0  0  0  0  0  0  0  0
   21.6479   33.6111   37.8317 O   0  0  0  0  0  0  0  0  0  0  0  0
   19.7613   30.7772   38.1918 C   0  0  2  0  0  0  0  0  0  0  0  0
   21.0504   31.0015   38.7589 O   0  0  0  0  0  0  0  0  0  0  0  0
   22.6349   27.5030   37.5271 C   0  0  0  0  0  0  0  0  0  0  0  0
   21.3720   26.9644   36.9676 O   0  0  0  0  0  0  0  0  0  0  0  0
   22.8424   34.1924   35.7682 C   0  0  2  0  0  0  0  0  0  0  0  0
   22.8998   32.8165   35.3762 O   0  0  0  0  0  0  0  0  0  0  0  0
   19.8001   29.4223   37.4427 C   0  0  1  0  0  0  0  0  0  0  0  0
   20.0743   28.3805   38.4195 O   0  0  0  0  0  0  0  0  0  0  0  0
   24.0985   34.5041   36.5515 C   0  0  0  0  0  0  0  0  0  0  0  0
   24.3616   27.3210   39.3613 C   0  0  0  0  0  0  0  0  0  0  0  0
   21.7219   26.7944   42.2283 C   0  0  0  0  0  0  0  0  0  0  0  0
  1  2  1  6  0  0  0
  1  6  1  0  0  0  0
  1 23  1  0  0  0  0
  3  4  1  6  0  0  0
  3  8  1  0  0  0  0
  3 30  1  0  0  0  0
  5  9  1  0  0  0  0
  5 27  1  0  0  0  0
  5 31  1  1  0  0  0
  6  7  1  6  0  0  0
  6 11  1  0  0  0  0
  8 13  1  0  0  0  0
  9 10  1  1  0  0  0
  9 15  1  0  0  0  0
 11 12  1  1  0  0  0
 11 17  1  0  0  0  0
 13 14  1  6  0  0  0
 13 19  1  0  0  0  0
 15 16  1  1  0  0  0
 15 20  1  0  0  0  0
 16 34  1  0  0  0  0
 17 18  1  6  0  0  0
 17 22  1  0  0  0  0
 19  2  1  1  0  0  0
 19 24  1  0  0  0  0
 20 21  1  6  0  0  0
 20 26  1  0  0  0  0
 20 33  1  0  0  0  0
 22 23  1  1  0  0  0
 22 28  1  0  0  0  0
 24 25  1  6  0  0  0
 24 30  1  0  0  0  0
 26 27  1  0  0  0  0
 28 29  1  1  0  0  0
 28 32  1  0  0  0  0
 30 31  1  1  0  0  0
M  END
>  <CHROM.1>
167.74009275,179.64346747,-96.79685869,-174.69685811,68.55302334,176.86114771
20.79681580,30.87777475,37.91809919,-1.67738167,0.23928629,2.94910187

>  <Name>
ligand

>  <RI>
0

>  <Rbt.Current_Directory>
/home/itssahil/PROJECTS/Mol_Feturizer/New_Systems/rnas/4p3s

>  <Rbt.Executable>
rbdock ($Id: //depot/dev/client3/rdock/2013.1/src/exe/rbdock.cxx#4 $)

>  <Rbt.Library>
libRbt.so (2013.1, Build901 2013/11/27)

>  <Rbt.Parameter_File>
/export/apps/rDock/src/rDock_2013.1_src/data/scripts/dock_solv.prm

>  <Rbt.Receptor>
prm/pocket_docking_7.prm

>  <SCORE>
-10.228

>  <SCORE.INTER>
-4.39687

>  <SCORE.INTER.CONST>
1

>  <SCORE.INTER.POLAR>
0

>  <SCORE.INTER.ROT>
6

>  <SCORE.INTER.SOLV>
9.29876

>  <SCORE.INTER.VDW>
-13.6308

>  <SCORE.INTER.norm>
-0.12932

>  <SCORE.INTRA>
-5.83112

>  <SCORE.INTRA.DIHEDRAL>
-13.667

>  <SCORE.INTRA.DIHEDRAL.0>
15.8194

>  <SCORE.INTRA.POLAR>
0

>  <SCORE.INTRA.POLAR.0>
0

>  <SCORE.INTRA.REPUL>
0

>  <SCORE.INTRA.REPUL.0>
0

>  <SCORE.INTRA.SOLV>
-0.631236

>  <SCORE.INTRA.SOLV.lig_0>
-71.9159

>  <SCORE.INTRA.VDW>
1.31802

>  <SCORE.INTRA.VDW.0>
-3.53918

>  <SCORE.INTRA.norm>
-0.171504

>  <SCORE.RESTR>
0

>  <SCORE.RESTR.CAVITY>
0

>  <SCORE.RESTR.norm>
0

>  <SCORE.SYSTEM>
0

>  <SCORE.SYSTEM.CONST>
0

>  <SCORE.SYSTEM.DIHEDRAL>
0

>  <SCORE.SYSTEM.SOLV>
0

>  <SCORE.SYSTEM.norm>
0

>  <SCORE.heavy>
34

>  <SCORE.norm>
-0.300823

>  <RMSD>
7.972

$$$$
ligand
 OpenBabel01301917533D
libRbt.so/2013.1/901 2013/11/27
 34 36  0  0  0  0  0  0  0  0999 V2000
   23.3691   30.6890   36.9465 C   0  0  2  0  0  0  0  0  0  0  0  0
   22.2304   30.6324   37.8116 O   0  0  0  0  0  0  0  0  0  0  0  0
   21.0346   26.5856   37.0400 C   0  0  2  0  0  0  0  0  0  0  0  0
   20.5202   25.2212   37.2206 N   0  0  0  0  0  0  0  0  0  0  0  0
   19.1501   27.8484   34.8643 C   0  0  2  0  0  0  0  0  0  0  0  0
   24.1442   32.0268   37.2470 C   0  0  2  0  0  0  0  0  0  0  0  0
   24.5683   32.0827   38.6552 N   0  0  0  0  0  0  0  0  0  0  0  0
   22.1606   26.8182   38.1112 C   0  0  0  0  0  0  0  0  0  0  0  0
   17.8037   27.6580   34.0604 C   0  0  2  0  0  0  0  0  0  0  0  0
   16.7937   28.5026   34.5848 O   0  0  0  0  0  0  0  0  0  0  0  0
   23.2477   33.2560   36.9086 C   0  0  1  0  0  0  0  0  0  0  0  0
   23.9523   34.4811   37.1820 O   0  0  0  0  0  0  0  0  0  0  0  0
   22.7226   28.2687   37.9049 C   0  0  2  0  0  0  0  0  0  0  0  0
   23.7965   28.5622   38.8963 N   0  0  0  0  0  0  0  0  0  0  0  0
   17.3697   26.1482   34.1803 C   0  0  1  0  0  0  0  0  0  0  0  0
   16.0928   25.9104   33.4775 N   0  0  0  0  0  0  0  0  0  0  0  0
   22.8277   33.1591   35.4233 C   0  0  2  0  0  0  0  0  0  0  0  0
   22.0125   34.2865   35.0881 O   0  0  0  0  0  0  0  0  0  0  0  0
   21.5913   29.3295   38.0607 C   0  0  2  0  0  0  0  0  0  0  0  0
   18.4956   25.2464   33.5826 C   0  0  1  0  0  0  0  0  0  0  0  0
   18.6471   25.5701   32.2043 O   0  0  0  0  0  0  0  0  0  0  0  0
   22.0517   31.7902   35.1994 C   0  0  2  0  0  0  0  0  0  0  0  0
   22.9074   30.6382   35.5613 O   0  0  0  0  0  0  0  0  0  0  0  0
   20.4662   29.0292   37.0334 C   0  0  2  0  0  0  0  0  0  0  0  0
   19.4316   29.9932   37.2180 O   0  0  0  0  0  0  0  0  0  0  0  0
   19.8287   25.5301   34.3467 C   0  0  0  0  0  0  0  0  0  0  0  0
   20.1868   26.9678   34.2910 O   0  0  0  0  0  0  0  0  0  0  0  0
   21.5895   31.5971   33.7266 C   0  0  2  0  0  0  0  0  0  0  0  0
   20.9705   32.8027   33.2645 O   0  0  0  0  0  0  0  0  0  0  0  0
   19.8510   27.6241   37.2467 C   0  0  1  0  0  0  0  0  0  0  0  0
   18.8321   27.4244   36.2285 O   0  0  0  0  0  0  0  0  0  0  0  0
   20.5834   30.4761   33.5858 C   0  0  0  0  0  0  0  0  0  0  0  0
   18.1568   23.7582   33.6802 C   0  0  0  0  0  0  0  0  0  0  0  0
   15.1291   25.3814   34.4736 C   0  0  0  0  0  0  0  0  0  0  0  0
  1  2  1  1  0  0  0
  1  6  1  0  0  0  0
  1 23  1  0  0  0  0
  3  4  1  1  0  0  0
  3  8  1  0  0  0  0
  3 30  1  0  0  0  0
  5  9  1  0  0  0  0
  5 27  1  0  0  0  0
  5 31  1  1  0  0  0
  6  7  1  1  0  0  0
  6 11  1  0  0  0  0
  8 13  1  0  0  0  0
  9 10  1  1  0  0  0
  9 15  1  0  0  0  0
 11 12  1  6  0  0  0
 11 17  1  0  0  0  0
 13 14  1  1  0  0  0
 13 19  1  0  0  0  0
 15 16  1  6  0  0  0
 15 20  1  0  0  0  0
 16 34  1  0  0  0  0
 17 18  1  1  0  0  0
 17 22  1  0  0  0  0
 19  2  1  6  0  0  0
 19 24  1  0  0  0  0
 20 21  1  6  0  0  0
 20 26  1  0  0  0  0
 20 33  1  0  0  0  0
 22 23  1  6  0  0  0
 22 28  1  0  0  0  0
 24 25  1  1  0  0  0
 24 30  1  0  0  0  0
 26 27  1  0  0  0  0
 28 29  1  1  0  0  0
 28 32  1  0  0  0  0
 30 31  1  6  0  0  0
M  END
>  <CHROM.1>
-160.16911962,28.44097531,-121.44241314,-46.86838148,-72.49506037,-173.52134834
20.63497385,29.00732192,35.71396732,-0.55444777,0.77837089,2.65227369

>  <Name>
ligand

>  <RI>
0

>  <Rbt.Current_Directory>
/home/itssahil/PROJECTS/Mol_Feturizer/New_Systems/rnas/4p3s

>  <Rbt.Executable>
rbdock ($Id: //depot/dev/client3/rdock/2013.1/src/exe/rbdock.cxx#4 $)

>  <Rbt.Library>
libRbt.so (2013.1, Build901 2013/11/27)

>  <Rbt.Parameter_File>
/export/apps/rDock/src/rDock_2013.1_src/data/scripts/dock_solv.prm

>  <Rbt.Receptor>
prm/blind_docking_80.prm

>  <SCORE>
-3.26438

>  <SCORE.INTER>
-7.01816

>  <SCORE.INTER.CONST>
1

>  <SCORE.INTER.POLAR>
0

>  <SCORE.INTER.ROT>
6

>  <SCORE.INTER.SOLV>
21.8612

>  <SCORE.INTER.VDW>
-19.5658

>  <SCORE.INTER.norm>
-0.206416

>  <SCORE.INTRA>
0.70675

>  <SCORE.INTRA.DIHEDRAL>
-7.28089

>  <SCORE.INTRA.DIHEDRAL.0>
15.8194

>  <SCORE.INTRA.POLAR>
0

>  <SCORE.INTRA.POLAR.0>
0

>  <SCORE.INTRA.REPUL>
0

>  <SCORE.INTRA.REPUL.0>
0

>  <SCORE.INTRA.SOLV>
2.93881

>  <SCORE.INTRA.SOLV.lig_0>
-71.9159

>  <SCORE.INTRA.VDW>
2.87779

>  <SCORE.INTRA.VDW.0>
-3.53918

>  <SCORE.INTRA.norm>
0.0207868

>  <SCORE.RESTR>
3.04703

>  <SCORE.RESTR.CAVITY>
3.04703

>  <SCORE.RESTR.norm>
0.0896186

>  <SCORE.SYSTEM>
0

>  <SCORE.SYSTEM.CONST>
0

>  <SCORE.SYSTEM.DIHEDRAL>
0

>  <SCORE.SYSTEM.SOLV>
0

>  <SCORE.SYSTEM.norm>
0

>  <SCORE.heavy>
34

>  <SCORE.norm>
-0.0960111

>  <RMSD>
7.977

$$$$
ligand
 OpenBabel01301917533D
libRbt.so/2013.1/901 2013/11/27
 34 36  0  0  0  0  0  0  0  0999 V2000
   23.5506   31.6517   36.3162 C   0  0  2  0  0  0  0  0  0  0  0  0
   22.3925   31.4268   37.1264 O   0  0  0  0  0  0  0  0  0  0  0  0
   22.7000   27.1509   37.2818 C   0  0  2  0  0  0  0  0  0  0  0  0
   22.5419   25.7523   37.7032 N   0  0  0  0  0  0  0  0  0  0  0  0
   20.0788   25.7465   35.9018 C   0  0  2  0  0  0  0  0  0  0  0  0
   24.1423   33.0623   36.6914 C   0  0  2  0  0  0  0  0  0  0  0  0
   24.4975   33.1197   38.1185 N   0  0  0  0  0  0  0  0  0  0  0  0
   23.2435   27.9630   38.5123 C   0  0  0  0  0  0  0  0  0  0  0  0
   19.2884   25.4794   34.5604 C   0  0  2  0  0  0  0  0  0  0  0  0
   20.1927   25.2797   33.4876 O   0  0  0  0  0  0  0  0  0  0  0  0
   23.1164   34.1846   36.3494 C   0  0  1  0  0  0  0  0  0  0  0  0
   23.6532   35.4759   36.6910 O   0  0  0  0  0  0  0  0  0  0  0  0
   23.4304   29.4526   38.0557 C   0  0  2  0  0  0  0  0  0  0  0  0
   23.9408   30.2872   39.1805 N   0  0  0  0  0  0  0  0  0  0  0  0
   18.3697   26.7272   34.2751 C   0  0  1  0  0  0  0  0  0  0  0  0
   17.6275   26.5559   33.0100 N   0  0  0  0  0  0  0  0  0  0  0  0
   22.7735   34.0897   34.8442 C   0  0  2  0  0  0  0  0  0  0  0  0
   21.8406   35.1209   34.5061 O   0  0  0  0  0  0  0  0  0  0  0  0
   22.0817   30.0532   37.5561 C   0  0  2  0  0  0  0  0  0  0  0  0
   17.3778   26.9115   35.4669 C   0  0  1  0  0  0  0  0  0  0  0  0
   16.5578   25.7507   35.5533 O   0  0  0  0  0  0  0  0  0  0  0  0
   22.1816   32.6455   34.5446 C   0  0  2  0  0  0  0  0  0  0  0  0
   23.1566   31.5939   34.9105 O   0  0  0  0  0  0  0  0  0  0  0  0
   21.5408   29.1876   36.3858 C   0  0  2  0  0  0  0  0  0  0  0  0
   20.2934   29.7391   35.9691 O   0  0  0  0  0  0  0  0  0  0  0  0
   18.1988   27.0837   36.7851 C   0  0  0  0  0  0  0  0  0  0  0  0
   19.1152   25.9389   37.0033 O   0  0  0  0  0  0  0  0  0  0  0  0
   21.8081   32.4496   33.0471 C   0  0  2  0  0  0  0  0  0  0  0  0
   22.9015   32.8785   32.2282 O   0  0  0  0  0  0  0  0  0  0  0  0
   21.2918   27.7221   36.8201 C   0  0  1  0  0  0  0  0  0  0  0  0
   20.8151   26.9879   35.6588 O   0  0  0  0  0  0  0  0  0  0  0  0
   20.5896   33.2544   32.6522 C   0  0  0  0  0  0  0  0  0  0  0  0
   16.4607   28.1201   35.2738 C   0  0  0  0  0  0  0  0  0  0  0  0
   18.5807   26.7975   31.8992 C   0  0  0  0  0  0  0  0  0  0  0  0
  1  2  1  1  0  0  0
  1  6  1  0  0  0  0
  1 23  1  0  0  0  0
  3  4  1  1  0  0  0
  3  8  1  0  0  0  0
  3 30  1  0  0  0  0
  5  9  1  0  0  0  0
  5 27  1  0  0  0  0
  5 31  1  6  0  0  0
  6  7  1  1  0  0  0
  6 11  1  0  0  0  0
  8 13  1  0  0  0  0
  9 10  1  6  0  0  0
  9 15  1  0  0  0  0
 11 12  1  6  0  0  0
 11 17  1  0  0  0  0
 13 14  1  1  0  0  0
 13 19  1  0  0  0  0
 15 16  1  6  0  0  0
 15 20  1  0  0  0  0
 16 34  1  0  0  0  0
 17 18  1  1  0  0  0
 17 22  1  0  0  0  0
 19  2  1  6  0  0  0
 19 24  1  0  0  0  0
 20 21  1  1  0  0  0
 20 26  1  0  0  0  0
 20 33  1  0  0  0  0
 22 23  1  6  0  0  0
 22 28  1  0  0  0  0
 24 25  1  1  0  0  0
 24 30  1  0  0  0  0
 26 27  1  0  0  0  0
 28 29  1  6  0  0  0
 28 32  1  0  0  0  0
 30 31  1  6  0  0  0
M  END
>  <CHROM.1>
-146.66925150,45.72262596,-75.92156133,48.63808183,85.57189214,160.73519803
21.16123973,29.59423761,35.68032188,-0.72897069,0.78968119,2.56049226

>  <Name>
ligand

>  <RI>
0

>  <Rbt.Current_Directory>
/home/itssahil/PROJECTS/Mol_Feturizer/New_Systems/rnas/4p3s

>  <Rbt.Executable>
rbdock ($Id: //depot/dev/client3/rdock/2013.1/src/exe/rbdock.cxx#4 $)

>  <Rbt.Library>
libRbt.so (2013.1, Build901 2013/11/27)

>  <Rbt.Parameter_File>
/export/apps/rDock/src/rDock_2013.1_src/data/scripts/dock_solv.prm

>  <Rbt.Receptor>
prm/blind_docking_80.prm

>  <SCORE>
14.3276

>  <SCORE.INTER>
10.2865

>  <SCORE.INTER.CONST>
1

>  <SCORE.INTER.POLAR>
0

>  <SCORE.INTER.ROT>
6

>  <SCORE.INTER.SOLV>
25.7211

>  <SCORE.INTER.VDW>
-9.31599

>  <SCORE.INTER.norm>
0.302545

>  <SCORE.INTRA>
1.72346

>  <SCORE.INTRA.DIHEDRAL>
-5.49297

>  <SCORE.INTRA.DIHEDRAL.0>
15.8194

>  <SCORE.INTRA.POLAR>
0

>  <SCORE.INTRA.POLAR.0>
0

>  <SCORE.INTRA.REPUL>
0

>  <SCORE.INTRA.REPUL.0>
0

>  <SCORE.INTRA.SOLV>
2.5762

>  <SCORE.INTRA.SOLV.lig_0>
-71.9159

>  <SCORE.INTRA.VDW>
3.18184

>  <SCORE.INTRA.VDW.0>
-3.53918

>  <SCORE.INTRA.norm>
0.0506899

>  <SCORE.RESTR>
2.31758

>  <SCORE.RESTR.CAVITY>
2.31758

>  <SCORE.RESTR.norm>
0.0681642

>  <SCORE.SYSTEM>
0

>  <SCORE.SYSTEM.CONST>
0

>  <SCORE.SYSTEM.DIHEDRAL>
0

>  <SCORE.SYSTEM.SOLV>
0

>  <SCORE.SYSTEM.norm>
0

>  <SCORE.heavy>
34

>  <SCORE.norm>
0.421399

>  <RMSD>
7.979

$$$$
ligand
 OpenBabel01301917533D
libRbt.so/2013.1/901 2013/11/27
 34 36  0  0  0  0  0  0  0  0999 V2000
   22.9367   30.9599   36.2811 C   0  0  2  0  0  0  0  0  0  0  0  0
   22.2479   30.8672   37.5322 O   0  0  0  0  0  0  0  0  0  0  0  0
   20.9831   26.7915   37.0954 C   0  0  2  0  0  0  0  0  0  0  0  0
   20.4506   25.4539   37.3885 N   0  0  0  0  0  0  0  0  0  0  0  0
   19.0559   27.9960   34.8612 C   0  0  2  0  0  0  0  0  0  0  0  0
   23.8710   32.2269   36.3313 C   0  0  2  0  0  0  0  0  0  0  0  0
   24.8343   32.1252   37.4394 N   0  0  0  0  0  0  0  0  0  0  0  0
   22.1248   27.0901   38.1329 C   0  0  0  0  0  0  0  0  0  0  0  0
   17.7024   27.7276   34.0923 C   0  0  2  0  0  0  0  0  0  0  0  0
   16.6690   28.5446   34.6150 O   0  0  0  0  0  0  0  0  0  0  0  0
   23.0156   33.5209   36.4826 C   0  0  1  0  0  0  0  0  0  0  0  0
   23.8658   34.6816   36.5290 O   0  0  0  0  0  0  0  0  0  0  0  0
   22.7059   28.5107   37.8069 C   0  0  2  0  0  0  0  0  0  0  0  0
   23.7956   28.8646   38.7607 N   0  0  0  0  0  0  0  0  0  0  0  0
   17.3342   26.2053   34.2632 C   0  0  1  0  0  0  0  0  0  0  0  0
   16.0542   25.8953   33.5951 N   0  0  0  0  0  0  0  0  0  0  0  0
   22.0214   33.5894   35.2998 C   0  0  2  0  0  0  0  0  0  0  0  0
   21.2332   34.7784   35.4131 O   0  0  0  0  0  0  0  0  0  0  0  0
   21.5924   29.5982   37.8902 C   0  0  2  0  0  0  0  0  0  0  0  0
   18.4842   25.3338   33.6663 C   0  0  1  0  0  0  0  0  0  0  0  0
   18.5937   25.6241   32.2767 O   0  0  0  0  0  0  0  0  0  0  0  0
   21.1150   32.2839   35.3174 C   0  0  2  0  0  0  0  0  0  0  0  0
   21.9490   31.0661   35.2098 O   0  0  0  0  0  0  0  0  0  0  0  0
   20.4510   29.2356   36.9016 C   0  0  2  0  0  0  0  0  0  0  0  0
   19.4331   30.2273   37.0202 O   0  0  0  0  0  0  0  0  0  0  0  0
   19.8197   25.6937   34.3931 C   0  0  0  0  0  0  0  0  0  0  0  0
   20.1164   27.1427   34.2900 O   0  0  0  0  0  0  0  0  0  0  0  0
   20.0798   32.2572   34.1564 C   0  0  2  0  0  0  0  0  0  0  0  0
   20.7297   32.6300   32.9362 O   0  0  0  0  0  0  0  0  0  0  0  0
   19.8175   27.8616   37.2317 C   0  0  1  0  0  0  0  0  0  0  0  0
   18.7840   27.5983   36.2432 O   0  0  0  0  0  0  0  0  0  0  0  0
   18.9378   33.2223   34.3869 C   0  0  0  0  0  0  0  0  0  0  0  0
   18.2098   23.8364   33.8124 C   0  0  0  0  0  0  0  0  0  0  0  0
   15.1374   25.3462   34.6241 C   0  0  0  0  0  0  0  0  0  0  0  0
  1  2  1  1  0  0  0
  1  6  1  0  0  0  0
  1 23  1  0  0  0  0
  3  4  1  1  0  0  0
  3  8  1  0  0  0  0
  3 30  1  0  0  0  0
  5  9  1  0  0  0  0
  5 27  1  0  0  0  0
  5 31  1  1  0  0  0
  6  7  1  1  0  0  0
  6 11  1  0  0  0  0
  8 13  1  0  0  0  0
  9 10  1  1  0  0  0
  9 15  1  0  0  0  0
 11 12  1  6  0  0  0
 11 17  1  0  0  0  0
 13 14  1  1  0  0  0
 13 19  1  0  0  0  0
 15 16  1  6  0  0  0
 15 20  1  0  0  0  0
 16 34  1  0  0  0  0
 17 18  1  1  0  0  0
 17 22  1  0  0  0  0
 19  2  1  6  0  0  0
 19 24  1  0  0  0  0
 20 21  1  6  0  0  0
 20 26  1  0  0  0  0
 20 33  1  0  0  0  0
 22 23  1  6  0  0  0
 22 28  1  0  0  0  0
 24 25  1  1  0  0  0
 24 30  1  0  0  0  0
 26 27  1  0  0  0  0
 28 29  1  6  0  0  0
 28 32  1  0  0  0  0
 30 31  1  6  0  0  0
M  END
>  <CHROM.1>
-163.89591123,55.64389737,-121.85978432,45.65174336,-76.73049762,-173.86827753
20.38896301,29.28788489,35.62623853,-0.77404481,0.67828569,2.83343076

>  <Name>
ligand

>  <RI>
0

>  <Rbt.Current_Directory>
/home/itssahil/PROJECTS/Mol_Feturizer/New_Systems/rnas/4p3s

>  <Rbt.Executable>
rbdock ($Id: //depot/dev/client3/rdock/2013.1/src/exe/rbdock.cxx#4 $)

>  <Rbt.Library>
libRbt.so (2013.1, Build901 2013/11/27)

>  <Rbt.Parameter_File>
/export/apps/rDock/src/rDock_2013.1_src/data/scripts/dock_solv.prm

>  <Rbt.Receptor>
prm/pocket_docking_5.prm

>  <SCORE>
-10.5006

>  <SCORE.INTER>
-7.72075

>  <SCORE.INTER.CONST>
1

>  <SCORE.INTER.POLAR>
0

>  <SCORE.INTER.ROT>
6

>  <SCORE.INTER.SOLV>
21.5161

>  <SCORE.INTER.VDW>
-19.9192

>  <SCORE.INTER.norm>
-0.227081

>  <SCORE.INTRA>
-2.77981

>  <SCORE.INTRA.DIHEDRAL>
-11.053

>  <SCORE.INTRA.DIHEDRAL.0>
15.8194

>  <SCORE.INTRA.POLAR>
0

>  <SCORE.INTRA.POLAR.0>
0

>  <SCORE.INTRA.REPUL>
0

>  <SCORE.INTRA.REPUL.0>
0

>  <SCORE.INTRA.SOLV>
2.37685

>  <SCORE.INTRA.SOLV.lig_0>
-71.9159

>  <SCORE.INTRA.VDW>
1.55828

>  <SCORE.INTRA.VDW.0>
-3.53918

>  <SCORE.INTRA.norm>
-0.0817592

>  <SCORE.RESTR>
0

>  <SCORE.RESTR.CAVITY>
0

>  <SCORE.RESTR.norm>
0

>  <SCORE.SYSTEM>
0

>  <SCORE.SYSTEM.CONST>
0

>  <SCORE.SYSTEM.DIHEDRAL>
0

>  <SCORE.SYSTEM.SOLV>
0

>  <SCORE.SYSTEM.norm>
0

>  <SCORE.heavy>
34

>  <SCORE.norm>
-0.30884

>  <RMSD>
7.991

$$$$
ligand
 OpenBabel01301917533D
libRbt.so/2013.1/901 2013/11/27
 34 36  0  0  0  0  0  0  0  0999 V2000
   23.3254   30.4097   36.9858 C   0  0  2  0  0  0  0  0  0  0  0  0
   22.1728   30.3580   37.8326 O   0  0  0  0  0  0  0  0  0  0  0  0
   20.8976   26.3575   36.9538 C   0  0  2  0  0  0  0  0  0  0  0  0
   20.3535   25.0003   37.0974 N   0  0  0  0  0  0  0  0  0  0  0  0
   19.0518   27.7193   34.8002 C   0  0  2  0  0  0  0  0  0  0  0  0
   24.1491   31.6986   37.3610 C   0  0  2  0  0  0  0  0  0  0  0  0
   24.5546   31.6691   38.7754 N   0  0  0  0  0  0  0  0  0  0  0  0
   22.0211   26.5399   38.0371 C   0  0  0  0  0  0  0  0  0  0  0  0
   17.7190   27.5338   33.9728 C   0  0  2  0  0  0  0  0  0  0  0  0
   16.6933   28.3570   34.5008 O   0  0  0  0  0  0  0  0  0  0  0  0
   23.3078   32.9783   37.0718 C   0  0  1  0  0  0  0  0  0  0  0  0
   24.0571   34.1590   37.4136 O   0  0  0  0  0  0  0  0  0  0  0  0
   22.6147   27.9828   37.8703 C   0  0  2  0  0  0  0  0  0  0  0  0
   23.6881   28.2291   38.8751 N   0  0  0  0  0  0  0  0  0  0  0  0
   17.2981   26.0177   34.0535 C   0  0  1  0  0  0  0  0  0  0  0  0
   16.0339   25.7831   33.3271 N   0  0  0  0  0  0  0  0  0  0  0  0
   22.9059   32.9705   35.5783 C   0  0  2  0  0  0  0  0  0  0  0  0
   22.1417   34.1452   35.2884 O   0  0  0  0  0  0  0  0  0  0  0  0
   21.5049   29.0631   38.0456 C   0  0  2  0  0  0  0  0  0  0  0  0
   18.4413   25.1399   33.4527 C   0  0  1  0  0  0  0  0  0  0  0  0
   18.6094   25.4952   32.0842 O   0  0  0  0  0  0  0  0  0  0  0  0
   22.0789   31.6469   35.2781 C   0  0  2  0  0  0  0  0  0  0  0  0
   22.8822   30.4448   35.5940 O   0  0  0  0  0  0  0  0  0  0  0  0
   20.3805   28.8121   37.0044 C   0  0  2  0  0  0  0  0  0  0  0  0
   19.3652   29.7928   37.2065 O   0  0  0  0  0  0  0  0  0  0  0  0
   19.7605   25.4195   34.2421 C   0  0  0  0  0  0  0  0  0  0  0  0
   20.1052   26.8614   34.2230 O   0  0  0  0  0  0  0  0  0  0  0  0
   21.6307   31.5442   33.7919 C   0  0  2  0  0  0  0  0  0  0  0  0
   21.0674   32.7950   33.3815 O   0  0  0  0  0  0  0  0  0  0  0  0
   19.7346   27.4154   37.1790 C   0  0  1  0  0  0  0  0  0  0  0  0
   18.7184   27.2624   36.1501 O   0  0  0  0  0  0  0  0  0  0  0  0
   20.5826   30.4733   33.5839 C   0  0  0  0  0  0  0  0  0  0  0  0
   18.1159   23.6468   33.5129 C   0  0  0  0  0  0  0  0  0  0  0  0
   15.0959   25.1244   34.2690 C   0  0  0  0  0  0  0  0  0  0  0  0
  1  2  1  1  0  0  0
  1  6  1  0  0  0  0
  1 23  1  0  0  0  0
  3  4  1  1  0  0  0
  3  8  1  0  0  0  0
  3 30  1  0  0  0  0
  5  9  1  0  0  0  0
  5 27  1  0  0  0  0
  5 31  1  1  0  0  0
  6  7  1  1  0  0  0
  6 11  1  0  0  0  0
  8 13  1  0  0  0  0
  9 10  1  1  0  0  0
  9 15  1  0  0  0  0
 11 12  1  6  0  0  0
 11 17  1  0  0  0  0
 13 14  1  1  0  0  0
 13 19  1  0  0  0  0
 15 16  1  6  0  0  0
 15 20  1  0  0  0  0
 16 34  1  0  0  0  0
 17 18  1  1  0  0  0
 17 22  1  0  0  0  0
 19  2  1  6  0  0  0
 19 24  1  0  0  0  0
 20 21  1  6  0  0  0
 20 26  1  0  0  0  0
 20 33  1  0  0  0  0
 22 23  1  6  0  0  0
 22 28  1  0  0  0  0
 24 25  1  1  0  0  0
 24 30  1  0  0  0  0
 26 27  1  0  0  0  0
 28 29  1  1  0  0  0
 28 32  1  0  0  0  0
 30 31  1  6  0  0  0
M  END
>  <CHROM.1>
-158.15034424,27.88051853,-125.83735630,-46.87168759,-72.79275368,-175.19376949
20.59348103,28.81922585,35.69964897,-0.52863090,0.78238909,2.65368296

>  <Name>
ligand

>  <RI>
0

>  <Rbt.Current_Directory>
/home/itssahil/PROJECTS/Mol_Feturizer/New_Systems/rnas/4p3s

>  <Rbt.Executable>
rbdock ($Id: //depot/dev/client3/rdock/2013.1/src/exe/rbdock.cxx#4 $)

>  <Rbt.Library>
libRbt.so (2013.1, Build901 2013/11/27)

>  <Rbt.Parameter_File>
/export/apps/rDock/src/rDock_2013.1_src/data/scripts/dock_solv.prm

>  <Rbt.Receptor>
prm/blind_docking_80.prm

>  <SCORE>
-2.29528

>  <SCORE.INTER>
-6.2189

>  <SCORE.INTER.CONST>
1

>  <SCORE.INTER.POLAR>
0

>  <SCORE.INTER.ROT>
6

>  <SCORE.INTER.SOLV>
22.4289

>  <SCORE.INTER.VDW>
-19.2222

>  <SCORE.INTER.norm>
-0.182909

>  <SCORE.INTRA>
1.19909

>  <SCORE.INTRA.DIHEDRAL>
-6.92249

>  <SCORE.INTRA.DIHEDRAL.0>
15.8194

>  <SCORE.INTRA.POLAR>
0

>  <SCORE.INTRA.POLAR.0>
0

>  <SCORE.INTRA.REPUL>
0

>  <SCORE.INTRA.REPUL.0>
0

>  <SCORE.INTRA.SOLV>
3.0861

>  <SCORE.INTRA.SOLV.lig_0>
-71.9159

>  <SCORE.INTRA.VDW>
3.11728

>  <SCORE.INTRA.VDW.0>
-3.53918

>  <SCORE.INTRA.norm>
0.0352673

>  <SCORE.RESTR>
2.72452

>  <SCORE.RESTR.CAVITY>
2.72452

>  <SCORE.RESTR.norm>
0.0801331

>  <SCORE.SYSTEM>
0

>  <SCORE.SYSTEM.CONST>
0

>  <SCORE.SYSTEM.DIHEDRAL>
0

>  <SCORE.SYSTEM.SOLV>
0

>  <SCORE.SYSTEM.norm>
0

>  <SCORE.heavy>
34

>  <SCORE.norm>
-0.0675083

>  <RMSD>
8.024

$$$$
ligand
 OpenBabel01301917533D
libRbt.so/2013.1/901 2013/11/27
 34 36  0  0  0  0  0  0  0  0999 V2000
   23.2456   31.3306   36.1541 C   0  0  2  0  0  0  0  0  0  0  0  0
   22.2532   31.1667   37.1722 O   0  0  0  0  0  0  0  0  0  0  0  0
   22.4504   26.8864   37.3790 C   0  0  2  0  0  0  0  0  0  0  0  0
   22.3119   25.5017   37.8501 N   0  0  0  0  0  0  0  0  0  0  0  0
   18.9535   26.3710   36.2551 C   0  0  2  0  0  0  0  0  0  0  0  0
   24.0596   32.6408   36.4727 C   0  0  2  0  0  0  0  0  0  0  0  0
   24.6951   32.5549   37.7974 N   0  0  0  0  0  0  0  0  0  0  0  0
   23.1881   27.7022   38.5013 C   0  0  0  0  0  0  0  0  0  0  0  0
   18.7916   25.0061   35.4766 C   0  0  2  0  0  0  0  0  0  0  0  0
   19.6360   24.0160   36.0382 O   0  0  0  0  0  0  0  0  0  0  0  0
   23.1237   33.8852   36.4075 C   0  0  1  0  0  0  0  0  0  0  0  0
   23.8638   35.0852   36.6982 O   0  0  0  0  0  0  0  0  0  0  0  0
   23.3528   29.1763   37.9892 C   0  0  2  0  0  0  0  0  0  0  0  0
   24.0432   30.0138   39.0111 N   0  0  0  0  0  0  0  0  0  0  0  0
   19.1695   25.2540   33.9673 C   0  0  1  0  0  0  0  0  0  0  0  0
   19.0735   24.0029   33.1885 N   0  0  0  0  0  0  0  0  0  0  0  0
   22.4804   33.9386   35.0020 C   0  0  2  0  0  0  0  0  0  0  0  0
   21.6251   35.0828   34.9167 O   0  0  0  0  0  0  0  0  0  0  0  0
   21.9654   29.8121   37.6726 C   0  0  2  0  0  0  0  0  0  0  0  0
   18.2140   26.3378   33.3752 C   0  0  1  0  0  0  0  0  0  0  0  0
   16.8801   25.8436   33.4370 O   0  0  0  0  0  0  0  0  0  0  0  0
   21.6772   32.5894   34.7556 C   0  0  2  0  0  0  0  0  0  0  0  0
   22.5766   31.4186   34.8583 O   0  0  0  0  0  0  0  0  0  0  0  0
   21.2374   28.9438   36.6107 C   0  0  2  0  0  0  0  0  0  0  0  0
   19.9606   29.5286   36.3627 O   0  0  0  0  0  0  0  0  0  0  0  0
   18.3396   27.6415   34.2273 C   0  0  0  0  0  0  0  0  0  0  0  0
   18.0558   27.3797   35.6588 O   0  0  0  0  0  0  0  0  0  0  0  0
   20.9939   32.5451   33.3586 C   0  0  2  0  0  0  0  0  0  0  0  0
   20.3993   31.2570   33.1650 O   0  0  0  0  0  0  0  0  0  0  0  0
   21.0087   27.4954   37.1089 C   0  0  1  0  0  0  0  0  0  0  0  0
   20.3495   26.7565   36.0439 O   0  0  0  0  0  0  0  0  0  0  0  0
   21.9787   32.7749   32.2334 C   0  0  0  0  0  0  0  0  0  0  0  0
   18.5309   26.6505   31.9121 C   0  0  0  0  0  0  0  0  0  0  0  0
   20.4404   23.6633   32.7228 C   0  0  0  0  0  0  0  0  0  0  0  0
  1  2  1  1  0  0  0
  1  6  1  0  0  0  0
  1 23  1  0  0  0  0
  3  4  1  1  0  0  0
  3  8  1  0  0  0  0
  3 30  1  0  0  0  0
  5  9  1  0  0  0  0
  5 27  1  0  0  0  0
  5 31  1  6  0  0  0
  6  7  1  1  0  0  0
  6 11  1  0  0  0  0
  8 13  1  0  0  0  0
  9 10  1  1  0  0  0
  9 15  1  0  0  0  0
 11 12  1  6  0  0  0
 11 17  1  0  0  0  0
 13 14  1  1  0  0  0
 13 19  1  0  0  0  0
 15 16  1  6  0  0  0
 15 20  1  0  0  0  0
 16 34  1  0  0  0  0
 17 18  1  1  0  0  0
 17 22  1  0  0  0  0
 19  2  1  6  0  0  0
 19 24  1  0  0  0  0
 20 21  1  1  0  0  0
 20 26  1  0  0  0  0
 20 33  1  0  0  0  0
 22 23  1  6  0  0  0
 22 28  1  0  0  0  0
 24 25  1  1  0  0  0
 24 30  1  0  0  0  0
 26 27  1  0  0  0  0
 28 29  1  6  0  0  0
 28 32  1  0  0  0  0
 30 31  1  6  0  0  0
M  END
>  <CHROM.1>
-141.09424424,48.70053452,-115.15707071,174.68672356,134.34160325,-148.16370225
21.11427621,29.13666553,35.55068579,-0.79184435,0.88437071,2.68490652

>  <Name>
ligand

>  <RI>
0

>  <Rbt.Current_Directory>
/home/itssahil/PROJECTS/Mol_Feturizer/New_Systems/rnas/4p3s

>  <Rbt.Executable>
rbdock ($Id: //depot/dev/client3/rdock/2013.1/src/exe/rbdock.cxx#4 $)

>  <Rbt.Library>
libRbt.so (2013.1, Build901 2013/11/27)

>  <Rbt.Parameter_File>
/export/apps/rDock/src/rDock_2013.1_src/data/scripts/dock_solv.prm

>  <Rbt.Receptor>
prm/blind_docking_80.prm

>  <SCORE>
1.86932

>  <SCORE.INTER>
-2.66901

>  <SCORE.INTER.CONST>
1

>  <SCORE.INTER.POLAR>
0

>  <SCORE.INTER.ROT>
6

>  <SCORE.INTER.SOLV>
22.7685

>  <SCORE.INTER.VDW>
-16.9688

>  <SCORE.INTER.norm>
-0.0785004

>  <SCORE.INTRA>
2.51932

>  <SCORE.INTRA.DIHEDRAL>
1.42823

>  <SCORE.INTRA.DIHEDRAL.0>
15.8194

>  <SCORE.INTRA.POLAR>
0

>  <SCORE.INTRA.POLAR.0>
0

>  <SCORE.INTRA.REPUL>
0

>  <SCORE.INTRA.REPUL.0>
0

>  <SCORE.INTRA.SOLV>
2.37957

>  <SCORE.INTRA.SOLV.lig_0>
-71.9159

>  <SCORE.INTRA.VDW>
0.615425

>  <SCORE.INTRA.VDW.0>
-3.53918

>  <SCORE.INTRA.norm>
0.0740977

>  <SCORE.RESTR>
2.01901

>  <SCORE.RESTR.CAVITY>
2.01901

>  <SCORE.RESTR.norm>
0.0593826

>  <SCORE.SYSTEM>
0

>  <SCORE.SYSTEM.CONST>
0

>  <SCORE.SYSTEM.DIHEDRAL>
0

>  <SCORE.SYSTEM.SOLV>
0

>  <SCORE.SYSTEM.norm>
0

>  <SCORE.heavy>
34

>  <SCORE.norm>
0.0549799

>  <RMSD>
8.024

$$$$
ligand
 OpenBabel01301917533D
libRbt.so/2013.1/901 2013/11/27
 34 36  0  0  0  0  0  0  0  0999 V2000
   23.4615   29.6945   39.0806 C   0  0  2  0  0  0  0  0  0  0  0  0
   22.3675   29.0245   39.7149 O   0  0  0  0  0  0  0  0  0  0  0  0
   19.8937   28.7083   36.2246 C   0  0  2  0  0  0  0  0  0  0  0  0
   18.8074   28.3297   35.3105 N   0  0  0  0  0  0  0  0  0  0  0  0
   18.1139   31.7347   37.8358 C   0  0  2  0  0  0  0  0  0  0  0  0
   24.6620   29.7408   40.0992 C   0  0  2  0  0  0  0  0  0  0  0  0
   25.0594   28.3828   40.5042 N   0  0  0  0  0  0  0  0  0  0  0  0
   20.5297   27.3855   36.7858 C   0  0  0  0  0  0  0  0  0  0  0  0
   16.7465   31.0382   38.2107 C   0  0  2  0  0  0  0  0  0  0  0  0
   16.9858   29.7957   38.8491 O   0  0  0  0  0  0  0  0  0  0  0  0
   24.2723   30.5809   41.3527 C   0  0  1  0  0  0  0  0  0  0  0  0
   25.3669   30.6257   42.2866 O   0  0  0  0  0  0  0  0  0  0  0  0
   21.7021   27.7906   37.7468 C   0  0  2  0  0  0  0  0  0  0  0  0
   22.3512   26.5790   38.3240 N   0  0  0  0  0  0  0  0  0  0  0  0
   15.9261   30.8211   36.8834 C   0  0  1  0  0  0  0  0  0  0  0  0
   14.6467   30.1379   37.1613 N   0  0  0  0  0  0  0  0  0  0  0  0
   23.8650   31.9972   40.8833 C   0  0  2  0  0  0  0  0  0  0  0  0
   23.5145   32.7900   42.0220 O   0  0  0  0  0  0  0  0  0  0  0  0
   21.1807   28.6846   38.9123 C   0  0  2  0  0  0  0  0  0  0  0  0
   15.6678   32.2073   36.2126 C   0  0  1  0  0  0  0  0  0  0  0  0
   14.8920   33.0010   37.1045 O   0  0  0  0  0  0  0  0  0  0  0  0
   22.6516   31.8692   39.8649 C   0  0  2  0  0  0  0  0  0  0  0  0
   23.0306   31.0379   38.7007 O   0  0  0  0  0  0  0  0  0  0  0  0
   20.4997   29.9482   38.3198 C   0  0  2  0  0  0  0  0  0  0  0  0
   20.0048   30.7318   39.4036 O   0  0  0  0  0  0  0  0  0  0  0  0
   17.0415   32.9000   35.9398 C   0  0  0  0  0  0  0  0  0  0  0  0
   17.8366   33.0299   37.1844 O   0  0  0  0  0  0  0  0  0  0  0  0
   22.1701   33.2484   39.3297 C   0  0  2  0  0  0  0  0  0  0  0  0
   23.3096   34.0538   39.0087 O   0  0  0  0  0  0  0  0  0  0  0  0
   19.3008   29.5837   37.4097 C   0  0  1  0  0  0  0  0  0  0  0  0
   18.7478   30.8215   36.8838 O   0  0  0  0  0  0  0  0  0  0  0  0
   21.3436   34.0001   40.3498 C   0  0  0  0  0  0  0  0  0  0  0  0
   14.8903   32.0791   34.9018 C   0  0  0  0  0  0  0  0  0  0  0  0
   14.7536   28.7588   36.6251 C   0  0  0  0  0  0  0  0  0  0  0  0
  1  2  1  1  0  0  0
  1  6  1  0  0  0  0
  1 23  1  0  0  0  0
  3  4  1  6  0  0  0
  3  8  1  0  0  0  0
  3 30  1  0  0  0  0
  5  9  1  0  0  0  0
  5 27  1  0  0  0  0
  5 31  1  6  0  0  0
  6  7  1  1  0  0  0
  6 11  1  0  0  0  0
  8 13  1  0  0  0  0
  9 10  1  6  0  0  0
  9 15  1  0  0  0  0
 11 12  1  1  0  0  0
 11 17  1  0  0  0  0
 13 14  1  1  0  0  0
 13 19  1  0  0  0  0
 15 16  1  1  0  0  0
 15 20  1  0  0  0  0
 16 34  1  0  0  0  0
 17 18  1  1  0  0  0
 17 22  1  0  0  0  0
 19  2  1  1  0  0  0
 19 24  1  0  0  0  0
 20 21  1  1  0  0  0
 20 26  1  0  0  0  0
 20 33  1  0  0  0  0
 22 23  1  6  0  0  0
 22 28  1  0  0  0  0
 24 25  1  1  0  0  0
 24 30  1  0  0  0  0
 26 27  1  0  0  0  0
 28 29  1  1  0  0  0
 28 32  1  0  0  0  0
 30 31  1  6  0  0  0
M  END
>  <CHROM.1>
-171.72666095,57.82286770,-108.87358716,43.09552625,177.94814729,-73.13469201
20.15611602,30.66320818,38.41697863,-0.08260451,0.45108302,-2.85102334

>  <Name>
ligand

>  <RI>
0

>  <Rbt.Current_Directory>
/home/itssahil/PROJECTS/Mol_Feturizer/New_Systems/rnas/4p3s

>  <Rbt.Executable>
rbdock ($Id: //depot/dev/client3/rdock/2013.1/src/exe/rbdock.cxx#4 $)

>  <Rbt.Library>
libRbt.so (2013.1, Build901 2013/11/27)

>  <Rbt.Parameter_File>
/export/apps/rDock/src/rDock_2013.1_src/data/scripts/dock_solv.prm

>  <Rbt.Receptor>
prm/pocket_docking_5.prm

>  <SCORE>
-6.92782

>  <SCORE.INTER>
-2.86861

>  <SCORE.INTER.CONST>
1

>  <SCORE.INTER.POLAR>
0

>  <SCORE.INTER.ROT>
6

>  <SCORE.INTER.SOLV>
8.13227

>  <SCORE.INTER.VDW>
-12.2232

>  <SCORE.INTER.norm>
-0.084371

>  <SCORE.INTRA>
-4.05921

>  <SCORE.INTRA.DIHEDRAL>
-12.4521

>  <SCORE.INTRA.DIHEDRAL.0>
15.8194

>  <SCORE.INTRA.POLAR>
0

>  <SCORE.INTRA.POLAR.0>
0

>  <SCORE.INTRA.REPUL>
0

>  <SCORE.INTRA.REPUL.0>
0

>  <SCORE.INTRA.SOLV>
0.941043

>  <SCORE.INTRA.SOLV.lig_0>
-71.9159

>  <SCORE.INTRA.VDW>
1.69634

>  <SCORE.INTRA.VDW.0>
-3.53918

>  <SCORE.INTRA.norm>
-0.119388

>  <SCORE.RESTR>
0

>  <SCORE.RESTR.CAVITY>
0

>  <SCORE.RESTR.norm>
0

>  <SCORE.SYSTEM>
0

>  <SCORE.SYSTEM.CONST>
0

>  <SCORE.SYSTEM.DIHEDRAL>
0

>  <SCORE.SYSTEM.SOLV>
0

>  <SCORE.SYSTEM.norm>
0

>  <SCORE.heavy>
34

>  <SCORE.norm>
-0.203759

>  <RMSD>
8.047

$$$$
ligand
 OpenBabel01301917533D
libRbt.so/2013.1/901 2013/11/27
 34 36  0  0  0  0  0  0  0  0999 V2000
   23.4907   31.3560   36.5134 C   0  0  2  0  0  0  0  0  0  0  0  0
   22.3403   31.1609   37.3421 O   0  0  0  0  0  0  0  0  0  0  0  0
   22.4196   26.8723   37.3996 C   0  0  2  0  0  0  0  0  0  0  0  0
   22.2395   25.4762   37.8206 N   0  0  0  0  0  0  0  0  0  0  0  0
   18.9439   26.4209   36.2618 C   0  0  2  0  0  0  0  0  0  0  0  0
   24.1376   32.7405   36.8947 C   0  0  2  0  0  0  0  0  0  0  0  0
   24.5201   32.7676   38.3156 N   0  0  0  0  0  0  0  0  0  0  0  0
   23.1695   27.6278   38.5554 C   0  0  0  0  0  0  0  0  0  0  0  0
   18.8331   25.0268   35.5272 C   0  0  2  0  0  0  0  0  0  0  0  0
   19.7072   24.0848   36.1246 O   0  0  0  0  0  0  0  0  0  0  0  0
   23.1452   33.9018   36.5852 C   0  0  1  0  0  0  0  0  0  0  0  0
   23.7325   35.1694   36.9325 O   0  0  0  0  0  0  0  0  0  0  0  0
   23.3785   29.1138   38.0968 C   0  0  2  0  0  0  0  0  0  0  0  0
   24.0828   29.8958   39.1527 N   0  0  0  0  0  0  0  0  0  0  0  0
   19.2113   25.2387   34.0125 C   0  0  1  0  0  0  0  0  0  0  0  0
   19.1625   23.9607   33.2742 N   0  0  0  0  0  0  0  0  0  0  0  0
   22.7723   33.8379   35.0856 C   0  0  2  0  0  0  0  0  0  0  0  0
   21.8697   34.9049   34.7772 O   0  0  0  0  0  0  0  0  0  0  0  0
   22.0116   29.7980   37.7923 C   0  0  2  0  0  0  0  0  0  0  0  0
   18.2231   26.2697   33.3809 C   0  0  1  0  0  0  0  0  0  0  0  0
   16.9064   25.7325   33.4522 O   0  0  0  0  0  0  0  0  0  0  0  0
   22.1253   32.4188   34.7795 C   0  0  2  0  0  0  0  0  0  0  0  0
   23.0696   31.3298   35.1146 O   0  0  0  0  0  0  0  0  0  0  0  0
   21.2693   28.9877   36.6951 C   0  0  2  0  0  0  0  0  0  0  0  0
   20.0110   29.6156   36.4583 O   0  0  0  0  0  0  0  0  0  0  0  0
   18.2994   27.6037   34.1910 C   0  0  0  0  0  0  0  0  0  0  0  0
   18.0161   27.3786   35.6287 O   0  0  0  0  0  0  0  0  0  0  0  0
   21.7184   32.2550   33.2869 C   0  0  2  0  0  0  0  0  0  0  0  0
   20.9007   33.3636   32.8964 O   0  0  0  0  0  0  0  0  0  0  0  0
   20.9973   27.5296   37.1403 C   0  0  1  0  0  0  0  0  0  0  0  0
   20.3273   26.8468   36.0450 O   0  0  0  0  0  0  0  0  0  0  0  0
   20.9274   30.9881   33.0461 C   0  0  0  0  0  0  0  0  0  0  0  0
   18.5380   26.5457   31.9100 C   0  0  0  0  0  0  0  0  0  0  0  0
   20.5238   23.7009   32.7449 C   0  0  0  0  0  0  0  0  0  0  0  0
  1  2  1  1  0  0  0
  1  6  1  0  0  0  0
  1 23  1  0  0  0  0
  3  4  1  1  0  0  0
  3  8  1  0  0  0  0
  3 30  1  0  0  0  0
  5  9  1  0  0  0  0
  5 27  1  0  0  0  0
  5 31  1  6  0  0  0
  6  7  1  1  0  0  0
  6 11  1  0  0  0  0
  8 13  1  0  0  0  0
  9 10  1  1  0  0  0
  9 15  1  0  0  0  0
 11 12  1  6  0  0  0
 11 17  1  0  0  0  0
 13 14  1  1  0  0  0
 13 19  1  0  0  0  0
 15 16  1  6  0  0  0
 15 20  1  0  0  0  0
 16 34  1  0  0  0  0
 17 18  1  1  0  0  0
 17 22  1  0  0  0  0
 19  2  1  6  0  0  0
 19 24  1  0  0  0  0
 20 21  1  1  0  0  0
 20 26  1  0  0  0  0
 20 33  1  0  0  0  0
 22 23  1  6  0  0  0
 22 28  1  0  0  0  0
 24 25  1  1  0  0  0
 24 30  1  0  0  0  0
 26 27  1  0  0  0  0
 28 29  1  1  0  0  0
 28 32  1  0  0  0  0
 30 31  1  6  0  0  0
M  END
>  <CHROM.1>
-144.95211947,38.21867324,-119.06082758,-52.25742019,130.75386530,-142.36834258
21.17423403,29.13260095,35.65124185,-0.76607776,0.89490766,2.68483301

>  <Name>
ligand

>  <RI>
0

>  <Rbt.Current_Directory>
/home/itssahil/PROJECTS/Mol_Feturizer/New_Systems/rnas/4p3s

>  <Rbt.Executable>
rbdock ($Id: //depot/dev/client3/rdock/2013.1/src/exe/rbdock.cxx#4 $)

>  <Rbt.Library>
libRbt.so (2013.1, Build901 2013/11/27)

>  <Rbt.Parameter_File>
/export/apps/rDock/src/rDock_2013.1_src/data/scripts/dock_solv.prm

>  <Rbt.Receptor>
prm/blind_docking_80.prm

>  <SCORE>
3.79466

>  <SCORE.INTER>
-2.00043

>  <SCORE.INTER.CONST>
1

>  <SCORE.INTER.POLAR>
0

>  <SCORE.INTER.ROT>
6

>  <SCORE.INTER.SOLV>
22.7007

>  <SCORE.INTER.VDW>
-16.5005

>  <SCORE.INTER.norm>
-0.0588361

>  <SCORE.INTRA>
3.78869

>  <SCORE.INTRA.DIHEDRAL>
3.84185

>  <SCORE.INTRA.DIHEDRAL.0>
15.8194

>  <SCORE.INTRA.POLAR>
0

>  <SCORE.INTRA.POLAR.0>
0

>  <SCORE.INTRA.REPUL>
0

>  <SCORE.INTRA.REPUL.0>
0

>  <SCORE.INTRA.SOLV>
2.49151

>  <SCORE.INTRA.SOLV.lig_0>
-71.9159

>  <SCORE.INTRA.VDW>
0.622012

>  <SCORE.INTRA.VDW.0>
-3.53918

>  <SCORE.INTRA.norm>
0.111432

>  <SCORE.RESTR>
2.00639

>  <SCORE.RESTR.CAVITY>
2.00639

>  <SCORE.RESTR.norm>
0.0590116

>  <SCORE.SYSTEM>
0

>  <SCORE.SYSTEM.CONST>
0

>  <SCORE.SYSTEM.DIHEDRAL>
0

>  <SCORE.SYSTEM.SOLV>
0

>  <SCORE.SYSTEM.norm>
0

>  <SCORE.heavy>
34

>  <SCORE.norm>
0.111608

>  <RMSD>
8.053

$$$$
ligand
 OpenBabel01301917533D
libRbt.so/2013.1/901 2013/11/27
 34 36  0  0  0  0  0  0  0  0999 V2000
   19.1889   32.2517   40.9712 C   0  0  2  0  0  0  0  0  0  0  0  0
   20.2286   33.1936   40.6882 O   0  0  0  0  0  0  0  0  0  0  0  0
   22.3953   34.0016   37.0751 C   0  0  2  0  0  0  0  0  0  0  0  0
   23.3457   33.8899   35.9603 N   0  0  0  0  0  0  0  0  0  0  0  0
   21.2572   32.6029   34.5152 C   0  0  2  0  0  0  0  0  0  0  0  0
   18.2990   32.8407   42.1296 C   0  0  2  0  0  0  0  0  0  0  0  0
   17.7222   34.1377   41.7408 N   0  0  0  0  0  0  0  0  0  0  0  0
   23.2163   33.9285   38.4130 C   0  0  0  0  0  0  0  0  0  0  0  0
   20.1335   32.7222   33.4113 C   0  0  2  0  0  0  0  0  0  0  0  0
   19.6304   34.0462   33.3622 O   0  0  0  0  0  0  0  0  0  0  0  0
   19.1434   32.9985   43.4300 C   0  0  1  0  0  0  0  0  0  0  0  0
   18.3338   33.5368   44.4916 O   0  0  0  0  0  0  0  0  0  0  0  0
   22.2025   34.0673   39.6027 C   0  0  2  0  0  0  0  0  0  0  0  0
   22.9146   34.0003   40.9107 N   0  0  0  0  0  0  0  0  0  0  0  0
   18.9797   31.7126   33.7742 C   0  0  1  0  0  0  0  0  0  0  0  0
   17.8764   31.8010   32.7966 N   0  0  0  0  0  0  0  0  0  0  0  0
   19.7271   31.6157   43.8033 C   0  0  2  0  0  0  0  0  0  0  0  0
   20.4973   31.7361   45.0034 O   0  0  0  0  0  0  0  0  0  0  0  0
   21.1322   32.9352   39.5547 C   0  0  2  0  0  0  0  0  0  0  0  0
   19.5627   30.2644   33.8068 C   0  0  1  0  0  0  0  0  0  0  0  0
   20.0548   29.9483   32.5086 O   0  0  0  0  0  0  0  0  0  0  0  0
   20.6116   31.0901   42.5919 C   0  0  2  0  0  0  0  0  0  0  0  0
   19.8000   30.9826   41.3591 O   0  0  0  0  0  0  0  0  0  0  0  0
   20.3874   32.9956   38.1935 C   0  0  2  0  0  0  0  0  0  0  0  0
   19.4376   31.9322   38.1628 O   0  0  0  0  0  0  0  0  0  0  0  0
   20.7283   30.2126   34.8461 C   0  0  0  0  0  0  0  0  0  0  0  0
   21.7716   31.2196   34.5371 O   0  0  0  0  0  0  0  0  0  0  0  0
   21.2423   29.6955   42.8710 C   0  0  2  0  0  0  0  0  0  0  0  0
   22.0454   29.7692   44.0542 O   0  0  0  0  0  0  0  0  0  0  0  0
   21.3540   32.8049   36.9986 C   0  0  1  0  0  0  0  0  0  0  0  0
   20.5747   32.9027   35.7748 O   0  0  0  0  0  0  0  0  0  0  0  0
   22.1296   29.2324   41.7366 C   0  0  0  0  0  0  0  0  0  0  0  0
   18.5039   29.2234   34.1732 C   0  0  0  0  0  0  0  0  0  0  0  0
   16.6759   32.2819   33.5235 C   0  0  0  0  0  0  0  0  0  0  0  0
  1  2  1  1  0  0  0
  1  6  1  0  0  0  0
  1 23  1  0  0  0  0
  3  4  1  6  0  0  0
  3  8  1  0  0  0  0
  3 30  1  0  0  0  0
  5  9  1  0  0  0  0
  5 27  1  0  0  0  0
  5 31  1  1  0  0  0
  6  7  1  6  0  0  0
  6 11  1  0  0  0  0
  8 13  1  0  0  0  0
  9 10  1  1  0  0  0
  9 15  1  0  0  0  0
 11 12  1  1  0  0  0
 11 17  1  0  0  0  0
 13 14  1  1  0  0  0
 13 19  1  0  0  0  0
 15 16  1  6  0  0  0
 15 20  1  0  0  0  0
 16 34  1  0  0  0  0
 17 18  1  1  0  0  0
 17 22  1  0  0  0  0
 19  2  1  1  0  0  0
 19 24  1  0  0  0  0
 20 21  1  6  0  0  0
 20 26  1  0  0  0  0
 20 33  1  0  0  0  0
 22 23  1  6  0  0  0
 22 28  1  0  0  0  0
 24 25  1  1  0  0  0
 24 30  1  0  0  0  0
 26 27  1  0  0  0  0
 28 29  1  1  0  0  0
 28 32  1  0  0  0  0
 30 31  1  6  0  0  0
M  END
>  <CHROM.1>
-174.57054297,-175.23563118,-116.01821911,-58.00548926,71.32744592,177.02708611
20.31537134,32.11253203,38.44186695,1.51312322,0.42212290,1.57644237

>  <Name>
ligand

>  <RI>
0

>  <Rbt.Current_Directory>
/home/itssahil/PROJECTS/Mol_Feturizer/New_Systems/rnas/4p3s

>  <Rbt.Executable>
rbdock ($Id: //depot/dev/client3/rdock/2013.1/src/exe/rbdock.cxx#4 $)

>  <Rbt.Library>
libRbt.so (2013.1, Build901 2013/11/27)

>  <Rbt.Parameter_File>
/export/apps/rDock/src/rDock_2013.1_src/data/scripts/dock_solv.prm

>  <Rbt.Receptor>
prm/pocket_docking_7.prm

>  <SCORE>
-6.23524

>  <SCORE.INTER>
0.491552

>  <SCORE.INTER.CONST>
1

>  <SCORE.INTER.POLAR>
0

>  <SCORE.INTER.ROT>
6

>  <SCORE.INTER.SOLV>
10.8581

>  <SCORE.INTER.VDW>
-10.8917

>  <SCORE.INTER.norm>
0.0144574

>  <SCORE.INTRA>
-6.72679

>  <SCORE.INTRA.DIHEDRAL>
-13.5941

>  <SCORE.INTRA.DIHEDRAL.0>
15.8194

>  <SCORE.INTRA.POLAR>
0

>  <SCORE.INTRA.POLAR.0>
0

>  <SCORE.INTRA.REPUL>
0

>  <SCORE.INTRA.REPUL.0>
0

>  <SCORE.INTRA.SOLV>
-0.700721

>  <SCORE.INTRA.SOLV.lig_0>
-71.9159

>  <SCORE.INTRA.VDW>
0.420606

>  <SCORE.INTRA.VDW.0>
-3.53918

>  <SCORE.INTRA.norm>
-0.197847

>  <SCORE.RESTR>
0

>  <SCORE.RESTR.CAVITY>
0

>  <SCORE.RESTR.norm>
0

>  <SCORE.SYSTEM>
0

>  <SCORE.SYSTEM.CONST>
0

>  <SCORE.SYSTEM.DIHEDRAL>
0

>  <SCORE.SYSTEM.SOLV>
0

>  <SCORE.SYSTEM.norm>
0

>  <SCORE.heavy>
34

>  <SCORE.norm>
-0.183389

>  <RMSD>
8.057

$$$$
ligand
 OpenBabel01301917533D
libRbt.so/2013.1/901 2013/11/27
 34 36  0  0  0  0  0  0  0  0999 V2000
   21.2748   30.1339   41.3527 C   0  0  2  0  0  0  0  0  0  0  0  0
   20.1835   30.7303   42.0609 O   0  0  0  0  0  0  0  0  0  0  0  0
   18.7982   34.7591   41.5591 C   0  0  2  0  0  0  0  0  0  0  0  0
   18.6191   36.2073   41.7298 N   0  0  0  0  0  0  0  0  0  0  0  0
   19.5465   34.6741   38.6659 C   0  0  2  0  0  0  0  0  0  0  0  0
   21.0071   28.5847   41.2586 C   0  0  2  0  0  0  0  0  0  0  0  0
   19.7378   28.3126   40.5653 N   0  0  0  0  0  0  0  0  0  0  0  0
   18.5645   34.0799   42.9566 C   0  0  0  0  0  0  0  0  0  0  0  0
   20.4817   34.1647   37.4991 C   0  0  2  0  0  0  0  0  0  0  0  0
   21.2210   33.0312   37.9202 O   0  0  0  0  0  0  0  0  0  0  0  0
   20.9844   27.9548   42.6840 C   0  0  1  0  0  0  0  0  0  0  0  0
   20.7397   26.5385   42.6026 O   0  0  0  0  0  0  0  0  0  0  0  0
   18.7370   32.5315   42.7691 C   0  0  2  0  0  0  0  0  0  0  0  0
   18.5341   31.8194   44.0630 N   0  0  0  0  0  0  0  0  0  0  0  0
   21.4573   35.3372   37.1045 C   0  0  1  0  0  0  0  0  0  0  0  0
   22.3869   34.9121   36.0386 N   0  0  0  0  0  0  0  0  0  0  0  0
   22.3340   28.2615   43.3743 C   0  0  2  0  0  0  0  0  0  0  0  0
   22.3387   27.6805   44.6821 O   0  0  0  0  0  0  0  0  0  0  0  0
   20.1586   32.1932   42.2270 C   0  0  2  0  0  0  0  0  0  0  0  0
   20.6138   36.5638   36.6331 C   0  0  1  0  0  0  0  0  0  0  0  0
   19.8693   36.1817   35.4811 O   0  0  0  0  0  0  0  0  0  0  0  0
   22.5311   29.8374   43.4346 C   0  0  2  0  0  0  0  0  0  0  0  0
   22.5127   30.4197   42.0742 O   0  0  0  0  0  0  0  0  0  0  0  0
   20.3799   32.9338   40.8801 C   0  0  2  0  0  0  0  0  0  0  0  0
   21.6967   32.6329   40.4225 O   0  0  0  0  0  0  0  0  0  0  0  0
   19.6410   36.9795   37.7830 C   0  0  0  0  0  0  0  0  0  0  0  0
   18.7804   35.8457   38.1977 O   0  0  0  0  0  0  0  0  0  0  0  0
   23.8701   30.2486   44.1116 C   0  0  2  0  0  0  0  0  0  0  0  0
   23.9116   29.7132   45.4389 O   0  0  0  0  0  0  0  0  0  0  0  0
   20.2720   34.4701   41.0427 C   0  0  1  0  0  0  0  0  0  0  0  0
   20.4659   35.0716   39.7330 O   0  0  0  0  0  0  0  0  0  0  0  0
   24.0217   31.7504   44.2126 C   0  0  0  0  0  0  0  0  0  0  0  0
   21.4918   37.7559   36.2498 C   0  0  0  0  0  0  0  0  0  0  0  0
   23.6651   34.5327   36.6889 C   0  0  0  0  0  0  0  0  0  0  0  0
  1  2  1  1  0  0  0
  1  6  1  0  0  0  0
  1 23  1  0  0  0  0
  3  4  1  1  0  0  0
  3  8  1  0  0  0  0
  3 30  1  0  0  0  0
  5  9  1  0  0  0  0
  5 27  1  0  0  0  0
  5 31  1  1  0  0  0
  6  7  1  1  0  0  0
  6 11  1  0  0  0  0
  8 13  1  0  0  0  0
  9 10  1  1  0  0  0
  9 15  1  0  0  0  0
 11 12  1  6  0  0  0
 11 17  1  0  0  0  0
 13 14  1  1  0  0  0
 13 19  1  0  0  0  0
 15 16  1  6  0  0  0
 15 20  1  0  0  0  0
 16 34  1  0  0  0  0
 17 18  1  1  0  0  0
 17 22  1  0  0  0  0
 19  2  1  6  0  0  0
 19 24  1  0  0  0  0
 20 21  1  6  0  0  0
 20 26  1  0  0  0  0
 20 33  1  0  0  0  0
 22 23  1  6  0  0  0
 22 28  1  0  0  0  0
 24 25  1  1  0  0  0
 24 30  1  0  0  0  0
 26 27  1  0  0  0  0
 28 29  1  1  0  0  0
 28 32  1  0  0  0  0
 30 31  1  6  0  0  0
M  END
>  <CHROM.1>
-176.96608087,168.97219968,-98.17014506,-58.21348837,-57.06365831,-125.09925936
20.93419101,32.53951373,40.68743535,-1.36494345,0.80247868,-0.87674857

>  <Name>
ligand

>  <RI>
0

>  <Rbt.Current_Directory>
/home/itssahil/PROJECTS/Mol_Feturizer/New_Systems/rnas/4p3s

>  <Rbt.Executable>
rbdock ($Id: //depot/dev/client3/rdock/2013.1/src/exe/rbdock.cxx#4 $)

>  <Rbt.Library>
libRbt.so (2013.1, Build901 2013/11/27)

>  <Rbt.Parameter_File>
/export/apps/rDock/src/rDock_2013.1_src/data/scripts/dock_solv.prm

>  <Rbt.Receptor>
prm/pocket_docking_7.prm

>  <SCORE>
-7.56865

>  <SCORE.INTER>
-5.42857

>  <SCORE.INTER.CONST>
1

>  <SCORE.INTER.POLAR>
0

>  <SCORE.INTER.ROT>
6

>  <SCORE.INTER.SOLV>
8.73224

>  <SCORE.INTER.VDW>
-14.1298

>  <SCORE.INTER.norm>
-0.159664

>  <SCORE.INTRA>
-2.14008

>  <SCORE.INTRA.DIHEDRAL>
-7.14436

>  <SCORE.INTRA.DIHEDRAL.0>
15.8194

>  <SCORE.INTRA.POLAR>
0

>  <SCORE.INTRA.POLAR.0>
0

>  <SCORE.INTRA.REPUL>
0

>  <SCORE.INTRA.REPUL.0>
0

>  <SCORE.INTRA.SOLV>
-0.490593

>  <SCORE.INTRA.SOLV.lig_0>
-71.9159

>  <SCORE.INTRA.VDW>
1.67739

>  <SCORE.INTRA.VDW.0>
-3.53918

>  <SCORE.INTRA.norm>
-0.0629437

>  <SCORE.RESTR>
0

>  <SCORE.RESTR.CAVITY>
0

>  <SCORE.RESTR.norm>
0

>  <SCORE.SYSTEM>
0

>  <SCORE.SYSTEM.CONST>
0

>  <SCORE.SYSTEM.DIHEDRAL>
0

>  <SCORE.SYSTEM.SOLV>
0

>  <SCORE.SYSTEM.norm>
0

>  <SCORE.heavy>
34

>  <SCORE.norm>
-0.222607

>  <RMSD>
8.074

$$$$
ligand
 OpenBabel01301917533D
libRbt.so/2013.1/901 2013/11/27
 34 36  0  0  0  0  0  0  0  0999 V2000
   21.3698   33.2622   29.7235 C   0  0  2  0  0  0  0  0  0  0  0  0
   22.4554   33.4214   30.6424 O   0  0  0  0  0  0  0  0  0  0  0  0
   20.9622   31.6734   34.2641 C   0  0  2  0  0  0  0  0  0  0  0  0
   20.8316   30.8257   35.4570 N   0  0  0  0  0  0  0  0  0  0  0  0
   23.1832   34.3098   35.9925 C   0  0  2  0  0  0  0  0  0  0  0  0
   21.8470   33.7714   28.3115 C   0  0  2  0  0  0  0  0  0  0  0  0
   23.0224   33.0153   27.8505 N   0  0  0  0  0  0  0  0  0  0  0  0
   21.1433   30.7275   33.0224 C   0  0  0  0  0  0  0  0  0  0  0  0
   24.0681   33.3084   36.8348 C   0  0  2  0  0  0  0  0  0  0  0  0
   24.5229   32.2449   36.0158 O   0  0  0  0  0  0  0  0  0  0  0  0
   22.1791   35.2930   28.3721 C   0  0  1  0  0  0  0  0  0  0  0  0
   22.6159   35.7627   27.0834 O   0  0  0  0  0  0  0  0  0  0  0  0
   21.2632   31.6332   31.7466 C   0  0  2  0  0  0  0  0  0  0  0  0
   21.4443   30.7987   30.5246 N   0  0  0  0  0  0  0  0  0  0  0  0
   23.1879   32.7499   38.0162 C   0  0  1  0  0  0  0  0  0  0  0  0
   23.9487   31.7757   38.8243 N   0  0  0  0  0  0  0  0  0  0  0  0
   20.9196   36.0482   28.8574 C   0  0  2  0  0  0  0  0  0  0  0  0
   21.1998   37.4506   28.9085 O   0  0  0  0  0  0  0  0  0  0  0  0
   22.4712   32.6103   31.8712 C   0  0  2  0  0  0  0  0  0  0  0  0
   22.7149   33.9428   38.9059 C   0  0  1  0  0  0  0  0  0  0  0  0
   23.8648   34.5788   39.4540 O   0  0  0  0  0  0  0  0  0  0  0  0
   20.5024   35.4835   30.2833 C   0  0  2  0  0  0  0  0  0  0  0  0
   20.2273   34.0312   30.2112 O   0  0  0  0  0  0  0  0  0  0  0  0
   22.2924   33.4818   33.1440 C   0  0  2  0  0  0  0  0  0  0  0  0
   23.4240   34.3431   33.2514 O   0  0  0  0  0  0  0  0  0  0  0  0
   21.9204   34.9522   38.0162 C   0  0  0  0  0  0  0  0  0  0  0  0
   22.7334   35.4122   36.8649 O   0  0  0  0  0  0  0  0  0  0  0  0
   19.2357   36.1812   30.8571 C   0  0  2  0  0  0  0  0  0  0  0  0
   19.5545   37.5362   31.1925 O   0  0  0  0  0  0  0  0  0  0  0  0
   22.2273   32.6193   34.4286 C   0  0  1  0  0  0  0  0  0  0  0  0
   22.0337   33.5151   35.5576 O   0  0  0  0  0  0  0  0  0  0  0  0
   18.7266   35.5012   32.1089 C   0  0  0  0  0  0  0  0  0  0  0  0
   21.8344   33.4828   40.0687 C   0  0  0  0  0  0  0  0  0  0  0  0
   23.9701   30.4962   38.0738 C   0  0  0  0  0  0  0  0  0  0  0  0
  1  2  1  1  0  0  0
  1  6  1  0  0  0  0
  1 23  1  0  0  0  0
  3  4  1  1  0  0  0
  3  8  1  0  0  0  0
  3 30  1  0  0  0  0
  5  9  1  0  0  0  0
  5 27  1  0  0  0  0
  5 31  1  1  0  0  0
  6  7  1  1  0  0  0
  6 11  1  0  0  0  0
  8 13  1  0  0  0  0
  9 10  1  6  0  0  0
  9 15  1  0  0  0  0
 11 12  1  6  0  0  0
 11 17  1  0  0  0  0
 13 14  1  6  0  0  0
 13 19  1  0  0  0  0
 15 16  1  1  0  0  0
 15 20  1  0  0  0  0
 16 34  1  0  0  0  0
 17 18  1  1  0  0  0
 17 22  1  0  0  0  0
 19  2  1  6  0  0  0
 19 24  1  0  0  0  0
 20 21  1  1  0  0  0
 20 26  1  0  0  0  0
 20 33  1  0  0  0  0
 22 23  1  6  0  0  0
 22 28  1  0  0  0  0
 24 25  1  1  0  0  0
 24 30  1  0  0  0  0
 26 27  1  0  0  0  0
 28 29  1  1  0  0  0
 28 32  1  0  0  0  0
 30 31  1  1  0  0  0
M  END
>  <CHROM.1>
-158.25675618,5.44114980,-77.79818226,-69.05879596,170.39754597,-78.70041533
22.00645970,33.75350577,33.38439447,-2.24836097,-1.25518930,1.12896271

>  <Name>
ligand

>  <RI>
0

>  <Rbt.Current_Directory>
/home/itssahil/PROJECTS/Mol_Feturizer/New_Systems/rnas/4p3s

>  <Rbt.Executable>
rbdock ($Id: //depot/dev/client3/rdock/2013.1/src/exe/rbdock.cxx#4 $)

>  <Rbt.Library>
libRbt.so (2013.1, Build901 2013/11/27)

>  <Rbt.Parameter_File>
/export/apps/rDock/src/rDock_2013.1_src/data/scripts/dock_solv.prm

>  <Rbt.Receptor>
prm/blind_docking_100.prm

>  <SCORE>
6.62704

>  <SCORE.INTER>
-1.37191

>  <SCORE.INTER.CONST>
1

>  <SCORE.INTER.POLAR>
0

>  <SCORE.INTER.ROT>
6

>  <SCORE.INTER.SOLV>
16.0384

>  <SCORE.INTER.VDW>
-13.8608

>  <SCORE.INTER.norm>
-0.0403504

>  <SCORE.INTRA>
5.93954

>  <SCORE.INTRA.DIHEDRAL>
-4.02501

>  <SCORE.INTRA.DIHEDRAL.0>
15.8194

>  <SCORE.INTRA.POLAR>
0

>  <SCORE.INTRA.POLAR.0>
0

>  <SCORE.INTRA.REPUL>
0

>  <SCORE.INTRA.REPUL.0>
0

>  <SCORE.INTRA.SOLV>
1.91213

>  <SCORE.INTRA.SOLV.lig_0>
-71.9159

>  <SCORE.INTRA.VDW>
6.99598

>  <SCORE.INTRA.VDW.0>
-3.53918

>  <SCORE.INTRA.norm>
0.174692

>  <SCORE.RESTR>
2.05941

>  <SCORE.RESTR.CAVITY>
2.05941

>  <SCORE.RESTR.norm>
0.0605708

>  <SCORE.SYSTEM>
0

>  <SCORE.SYSTEM.CONST>
0

>  <SCORE.SYSTEM.DIHEDRAL>
0

>  <SCORE.SYSTEM.SOLV>
0

>  <SCORE.SYSTEM.norm>
0

>  <SCORE.heavy>
34

>  <SCORE.norm>
0.194913

>  <RMSD>
8.079

$$$$
ligand
 OpenBabel01301917533D
libRbt.so/2013.1/901 2013/11/27
 34 36  0  0  0  0  0  0  0  0999 V2000
   21.9182   32.4850   39.0189 C   0  0  2  0  0  0  0  0  0  0  0  0
   22.8450   31.8288   38.1479 O   0  0  0  0  0  0  0  0  0  0  0  0
   20.6700   32.4218   34.4982 C   0  0  2  0  0  0  0  0  0  0  0  0
   20.2808   32.3902   33.0818 N   0  0  0  0  0  0  0  0  0  0  0  0
   18.7589   30.0336   33.7250 C   0  0  2  0  0  0  0  0  0  0  0  0
   22.6628   32.8098   40.3683 C   0  0  2  0  0  0  0  0  0  0  0  0
   23.8343   33.6677   40.1280 N   0  0  0  0  0  0  0  0  0  0  0  0
   22.1226   33.0152   34.5823 C   0  0  0  0  0  0  0  0  0  0  0  0
   17.2417   29.6824   33.9898 C   0  0  2  0  0  0  0  0  0  0  0  0
   16.5447   30.8271   34.4507 O   0  0  0  0  0  0  0  0  0  0  0  0
   23.1010   31.4902   41.0724 C   0  0  1  0  0  0  0  0  0  0  0  0
   23.7823   31.7825   42.3064 O   0  0  0  0  0  0  0  0  0  0  0  0
   22.5298   33.0666   36.0968 C   0  0  2  0  0  0  0  0  0  0  0  0
   23.9066   33.6166   36.2526 N   0  0  0  0  0  0  0  0  0  0  0  0
   17.1844   28.5365   35.0696 C   0  0  1  0  0  0  0  0  0  0  0  0
   15.7863   28.1852   35.3903 N   0  0  0  0  0  0  0  0  0  0  0  0
   21.8429   30.6220   41.3076 C   0  0  2  0  0  0  0  0  0  0  0  0
   22.2220   29.4088   41.9653 O   0  0  0  0  0  0  0  0  0  0  0  0
   22.4819   31.6444   36.7328 C   0  0  2  0  0  0  0  0  0  0  0  0
   17.9481   27.2874   34.5266 C   0  0  1  0  0  0  0  0  0  0  0  0
   17.2913   26.8364   33.3466 O   0  0  0  0  0  0  0  0  0  0  0  0
   21.1504   30.3347   39.9062 C   0  0  2  0  0  0  0  0  0  0  0  0
   20.7758   31.6010   39.2381 O   0  0  0  0  0  0  0  0  0  0  0  0
   21.0513   31.0622   36.5721 C   0  0  2  0  0  0  0  0  0  0  0  0
   21.0430   29.7511   37.1329 O   0  0  0  0  0  0  0  0  0  0  0  0
   19.4182   27.6995   34.1943 C   0  0  0  0  0  0  0  0  0  0  0  0
   19.4579   28.8294   33.2351 O   0  0  0  0  0  0  0  0  0  0  0  0
   19.8659   29.4671   40.0389 C   0  0  2  0  0  0  0  0  0  0  0  0
   19.0545   29.9847   41.0990 O   0  0  0  0  0  0  0  0  0  0  0  0
   20.6404   30.9457   35.0834 C   0  0  1  0  0  0  0  0  0  0  0  0
   19.2856   30.4196   35.0348 O   0  0  0  0  0  0  0  0  0  0  0  0
   20.1825   28.0231   40.3601 C   0  0  0  0  0  0  0  0  0  0  0  0
   17.9548   26.1331   35.5298 C   0  0  0  0  0  0  0  0  0  0  0  0
   15.4474   28.8405   36.6773 C   0  0  0  0  0  0  0  0  0  0  0  0
  1  2  1  6  0  0  0
  1  6  1  0  0  0  0
  1 23  1  0  0  0  0
  3  4  1  6  0  0  0
  3  8  1  0  0  0  0
  3 30  1  0  0  0  0
  5  9  1  0  0  0  0
  5 27  1  0  0  0  0
  5 31  1  1  0  0  0
  6  7  1  6  0  0  0
  6 11  1  0  0  0  0
  8 13  1  0  0  0  0
  9 10  1  1  0  0  0
  9 15  1  0  0  0  0
 11 12  1  1  0  0  0
 11 17  1  0  0  0  0
 13 14  1  6  0  0  0
 13 19  1  0  0  0  0
 15 16  1  6  0  0  0
 15 20  1  0  0  0  0
 16 34  1  0  0  0  0
 17 18  1  6  0  0  0
 17 22  1  0  0  0  0
 19  2  1  1  0  0  0
 19 24  1  0  0  0  0
 20 21  1  6  0  0  0
 20 26  1  0  0  0  0
 20 33  1  0  0  0  0
 22 23  1  1  0  0  0
 22 28  1  0  0  0  0
 24 25  1  6  0  0  0
 24 30  1  0  0  0  0
 26 27  1  0  0  0  0
 28 29  1  1  0  0  0
 28 32  1  0  0  0  0
 30 31  1  1  0  0  0
M  END
>  <CHROM.1>
-168.55548756,70.56802406,-101.31095711,46.63833225,73.62881990,-173.28403753
20.27963664,30.39848132,37.08925536,-0.61919422,-0.75828178,-1.27096232

>  <Name>
ligand

>  <RI>
0

>  <Rbt.Current_Directory>
/home/itssahil/PROJECTS/Mol_Feturizer/New_Systems/rnas/4p3s

>  <Rbt.Executable>
rbdock ($Id: //depot/dev/client3/rdock/2013.1/src/exe/rbdock.cxx#4 $)

>  <Rbt.Library>
libRbt.so (2013.1, Build901 2013/11/27)

>  <Rbt.Parameter_File>
/export/apps/rDock/src/rDock_2013.1_src/data/scripts/dock_solv.prm

>  <Rbt.Receptor>
prm/pocket_docking_5.prm

>  <SCORE>
-5.55407

>  <SCORE.INTER>
-1.28046

>  <SCORE.INTER.CONST>
1

>  <SCORE.INTER.POLAR>
0

>  <SCORE.INTER.ROT>
6

>  <SCORE.INTER.SOLV>
12.7471

>  <SCORE.INTER.VDW>
-12.7027

>  <SCORE.INTER.norm>
-0.0376607

>  <SCORE.INTRA>
-4.27361

>  <SCORE.INTRA.DIHEDRAL>
-11.9131

>  <SCORE.INTRA.DIHEDRAL.0>
15.8194

>  <SCORE.INTRA.POLAR>
0

>  <SCORE.INTRA.POLAR.0>
0

>  <SCORE.INTRA.REPUL>
0

>  <SCORE.INTRA.REPUL.0>
0

>  <SCORE.INTRA.SOLV>
1.04646

>  <SCORE.INTRA.SOLV.lig_0>
-71.9159

>  <SCORE.INTRA.VDW>
1.15972

>  <SCORE.INTRA.VDW.0>
-3.53918

>  <SCORE.INTRA.norm>
-0.125694

>  <SCORE.RESTR>
0

>  <SCORE.RESTR.CAVITY>
0

>  <SCORE.RESTR.norm>
0

>  <SCORE.SYSTEM>
0

>  <SCORE.SYSTEM.CONST>
0

>  <SCORE.SYSTEM.DIHEDRAL>
0

>  <SCORE.SYSTEM.SOLV>
0

>  <SCORE.SYSTEM.norm>
0

>  <SCORE.heavy>
34

>  <SCORE.norm>
-0.163355

>  <RMSD>
8.092

$$$$
ligand
 OpenBabel01301917533D
libRbt.so/2013.1/901 2013/11/27
 34 36  0  0  0  0  0  0  0  0999 V2000
   21.0116   30.7153   42.0863 C   0  0  2  0  0  0  0  0  0  0  0  0
   19.8326   30.1740   41.4821 O   0  0  0  0  0  0  0  0  0  0  0  0
   17.5229   31.4670   38.1063 C   0  0  2  0  0  0  0  0  0  0  0  0
   16.5954   32.2233   37.2541 N   0  0  0  0  0  0  0  0  0  0  0  0
   19.0575   33.9537   36.5700 C   0  0  2  0  0  0  0  0  0  0  0  0
   21.6900   29.5771   42.9378 C   0  0  2  0  0  0  0  0  0  0  0  0
   22.0326   28.4223   42.0922 N   0  0  0  0  0  0  0  0  0  0  0  0
   16.7404   31.0331   39.3980 C   0  0  0  0  0  0  0  0  0  0  0  0
   19.9882   34.0149   35.2951 C   0  0  2  0  0  0  0  0  0  0  0  0
   19.7779   32.8770   34.4770 O   0  0  0  0  0  0  0  0  0  0  0  0
   20.7434   29.1326   44.0933 C   0  0  1  0  0  0  0  0  0  0  0  0
   21.3596   28.0920   44.8743 O   0  0  0  0  0  0  0  0  0  0  0  0
   17.7263   30.2090   40.2986 C   0  0  2  0  0  0  0  0  0  0  0  0
   17.0496   29.7674   41.5514 N   0  0  0  0  0  0  0  0  0  0  0  0
   21.4855   34.0679   35.7825 C   0  0  1  0  0  0  0  0  0  0  0  0
   22.4125   34.0900   34.6331 N   0  0  0  0  0  0  0  0  0  0  0  0
   20.4116   30.3724   44.9563 C   0  0  2  0  0  0  0  0  0  0  0  0
   19.5518   29.9832   46.0320 O   0  0  0  0  0  0  0  0  0  0  0  0
   18.9763   31.0601   40.6759 C   0  0  2  0  0  0  0  0  0  0  0  0
   21.6873   35.3378   36.6684 C   0  0  1  0  0  0  0  0  0  0  0  0
   21.4253   36.4884   35.8716 O   0  0  0  0  0  0  0  0  0  0  0  0
   19.7299   31.4712   44.0320 C   0  0  2  0  0  0  0  0  0  0  0  0
   20.6301   31.8521   42.9209 O   0  0  0  0  0  0  0  0  0  0  0  0
   19.6859   31.5273   39.3760 C   0  0  2  0  0  0  0  0  0  0  0  0
   20.8055   32.3284   39.7481 O   0  0  0  0  0  0  0  0  0  0  0  0
   20.6876   35.2808   37.8678 C   0  0  0  0  0  0  0  0  0  0  0  0
   19.2873   35.1543   37.3973 O   0  0  0  0  0  0  0  0  0  0  0  0
   19.3609   32.7656   44.8122 C   0  0  2  0  0  0  0  0  0  0  0  0
   18.6169   32.4141   45.9841 O   0  0  0  0  0  0  0  0  0  0  0  0
   18.7554   32.3921   38.4903 C   0  0  1  0  0  0  0  0  0  0  0  0
   19.4938   32.7577   37.2921 O   0  0  0  0  0  0  0  0  0  0  0  0
   18.5101   33.7065   43.9879 C   0  0  0  0  0  0  0  0  0  0  0  0
   23.1172   35.4508   37.1992 C   0  0  0  0  0  0  0  0  0  0  0  0
   23.1860   32.8244   34.6616 C   0  0  0  0  0  0  0  0  0  0  0  0
  1  2  1  1  0  0  0
  1  6  1  0  0  0  0
  1 23  1  0  0  0  0
  3  4  1  6  0  0  0
  3  8  1  0  0  0  0
  3 30  1  0  0  0  0
  5  9  1  0  0  0  0
  5 27  1  0  0  0  0
  5 31  1  1  0  0  0
  6  7  1  6  0  0  0
  6 11  1  0  0  0  0
  8 13  1  0  0  0  0
  9 10  1  6  0  0  0
  9 15  1  0  0  0  0
 11 12  1  1  0  0  0
 11 17  1  0  0  0  0
 13 14  1  1  0  0  0
 13 19  1  0  0  0  0
 15 16  1  6  0  0  0
 15 20  1  0  0  0  0
 16 34  1  0  0  0  0
 17 18  1  1  0  0  0
 17 22  1  0  0  0  0
 19  2  1  1  0  0  0
 19 24  1  0  0  0  0
 20 21  1  6  0  0  0
 20 26  1  0  0  0  0
 20 33  1  0  0  0  0
 22 23  1  6  0  0  0
 22 28  1  0  0  0  0
 24 25  1  1  0  0  0
 24 30  1  0  0  0  0
 26 27  1  0  0  0  0
 28 29  1  1  0  0  0
 28 32  1  0  0  0  0
 30 31  1  6  0  0  0
M  END
>  <CHROM.1>
177.26322332,-174.26216373,-114.24009943,-50.87947952,87.81331503,-176.49459403
19.98368640,32.16295027,39.98281859,-1.67605529,-0.28788387,-1.16794775

>  <Name>
ligand

>  <RI>
0

>  <Rbt.Current_Directory>
/home/itssahil/PROJECTS/Mol_Feturizer/New_Systems/rnas/4p3s

>  <Rbt.Executable>
rbdock ($Id: //depot/dev/client3/rdock/2013.1/src/exe/rbdock.cxx#4 $)

>  <Rbt.Library>
libRbt.so (2013.1, Build901 2013/11/27)

>  <Rbt.Parameter_File>
/export/apps/rDock/src/rDock_2013.1_src/data/scripts/dock_solv.prm

>  <Rbt.Receptor>
prm/pocket_docking_8.prm

>  <SCORE>
-6.12517

>  <SCORE.INTER>
-0.118022

>  <SCORE.INTER.CONST>
1

>  <SCORE.INTER.POLAR>
0

>  <SCORE.INTER.ROT>
6

>  <SCORE.INTER.SOLV>
5.34384

>  <SCORE.INTER.VDW>
-9.45996

>  <SCORE.INTER.norm>
-0.00347123

>  <SCORE.INTRA>
-6.00715

>  <SCORE.INTRA.DIHEDRAL>
-10.8271

>  <SCORE.INTRA.DIHEDRAL.0>
15.8194

>  <SCORE.INTRA.POLAR>
0

>  <SCORE.INTRA.POLAR.0>
0

>  <SCORE.INTRA.REPUL>
0

>  <SCORE.INTRA.REPUL.0>
0

>  <SCORE.INTRA.SOLV>
-1.01277

>  <SCORE.INTRA.SOLV.lig_0>
-71.9159

>  <SCORE.INTRA.VDW>
-0.0871954

>  <SCORE.INTRA.VDW.0>
-3.53918

>  <SCORE.INTRA.norm>
-0.176681

>  <SCORE.RESTR>
0

>  <SCORE.RESTR.CAVITY>
0

>  <SCORE.RESTR.norm>
0

>  <SCORE.SYSTEM>
0

>  <SCORE.SYSTEM.CONST>
0

>  <SCORE.SYSTEM.DIHEDRAL>
0

>  <SCORE.SYSTEM.SOLV>
0

>  <SCORE.SYSTEM.norm>
0

>  <SCORE.heavy>
34

>  <SCORE.norm>
-0.180152

>  <RMSD>
8.109

$$$$
ligand
 OpenBabel01301917533D
libRbt.so/2013.1/901 2013/11/27
 34 36  0  0  0  0  0  0  0  0999 V2000
   23.3165   30.7885   36.7125 C   0  0  2  0  0  0  0  0  0  0  0  0
   22.2127   30.7466   37.6226 O   0  0  0  0  0  0  0  0  0  0  0  0
   21.0764   26.6531   37.0274 C   0  0  2  0  0  0  0  0  0  0  0  0
   20.5818   25.2906   37.2671 N   0  0  0  0  0  0  0  0  0  0  0  0
   19.1639   27.8186   34.8036 C   0  0  2  0  0  0  0  0  0  0  0  0
   24.2545   31.9802   37.1377 C   0  0  2  0  0  0  0  0  0  0  0  0
   24.7354   31.8031   38.5173 N   0  0  0  0  0  0  0  0  0  0  0  0
   22.1981   26.9484   38.0875 C   0  0  0  0  0  0  0  0  0  0  0  0
   17.8032   27.6280   34.0240 C   0  0  2  0  0  0  0  0  0  0  0  0
   16.8106   28.4934   34.5477 O   0  0  0  0  0  0  0  0  0  0  0  0
   23.4967   33.3355   37.0046 C   0  0  1  0  0  0  0  0  0  0  0  0
   24.3505   34.4277   37.3925 O   0  0  0  0  0  0  0  0  0  0  0  0
   22.7391   28.3965   37.8184 C   0  0  2  0  0  0  0  0  0  0  0  0
   23.8081   28.7485   38.7962 N   0  0  0  0  0  0  0  0  0  0  0  0
   17.3549   26.1256   34.1791 C   0  0  1  0  0  0  0  0  0  0  0  0
   16.0649   25.8887   33.5004 N   0  0  0  0  0  0  0  0  0  0  0  0
   23.0121   33.4819   35.5432 C   0  0  2  0  0  0  0  0  0  0  0  0
   22.3232   34.7276   35.3962 O   0  0  0  0  0  0  0  0  0  0  0  0
   21.5925   29.4465   37.9281 C   0  0  2  0  0  0  0  0  0  0  0  0
   18.4618   25.2003   33.5816 C   0  0  1  0  0  0  0  0  0  0  0  0
   18.5954   25.4964   32.1953 O   0  0  0  0  0  0  0  0  0  0  0  0
   22.0725   32.2496   35.1901 C   0  0  2  0  0  0  0  0  0  0  0  0
   22.7997   30.9718   35.3583 O   0  0  0  0  0  0  0  0  0  0  0  0
   20.4725   29.0857   36.9148 C   0  0  2  0  0  0  0  0  0  0  0  0
   19.4239   30.0416   37.0573 O   0  0  0  0  0  0  0  0  0  0  0  0
   19.8095   25.4837   34.3197 C   0  0  0  0  0  0  0  0  0  0  0  0
   20.1820   26.9160   34.2314 O   0  0  0  0  0  0  0  0  0  0  0  0
   21.5351   32.3043   33.7312 C   0  0  2  0  0  0  0  0  0  0  0  0
   22.6405   32.3702   32.8234 O   0  0  0  0  0  0  0  0  0  0  0  0
   19.8776   27.6823   37.1888 C   0  0  1  0  0  0  0  0  0  0  0  0
   18.8624   27.4238   36.1803 O   0  0  0  0  0  0  0  0  0  0  0  0
   20.6631   33.5165   33.4885 C   0  0  0  0  0  0  0  0  0  0  0  0
   18.1086   23.7181   33.7125 C   0  0  0  0  0  0  0  0  0  0  0  0
   15.1341   25.3149   34.5030 C   0  0  0  0  0  0  0  0  0  0  0  0
  1  2  1  1  0  0  0
  1  6  1  0  0  0  0
  1 23  1  0  0  0  0
  3  4  1  1  0  0  0
  3  8  1  0  0  0  0
  3 30  1  0  0  0  0
  5  9  1  0  0  0  0
  5 27  1  0  0  0  0
  5 31  1  1  0  0  0
  6  7  1  1  0  0  0
  6 11  1  0  0  0  0
  8 13  1  0  0  0  0
  9 10  1  1  0  0  0
  9 15  1  0  0  0  0
 11 12  1  6  0  0  0
 11 17  1  0  0  0  0
 13 14  1  1  0  0  0
 13 19  1  0  0  0  0
 15 16  1  6  0  0  0
 15 20  1  0  0  0  0
 16 34  1  0  0  0  0
 17 18  1  1  0  0  0
 17 22  1  0  0  0  0
 19  2  1  6  0  0  0
 19 24  1  0  0  0  0
 20 21  1  6  0  0  0
 20 26  1  0  0  0  0
 20 33  1  0  0  0  0
 22 23  1  6  0  0  0
 22 28  1  0  0  0  0
 24 25  1  1  0  0  0
 24 30  1  0  0  0  0
 26 27  1  0  0  0  0
 28 29  1  6  0  0  0
 28 32  1  0  0  0  0
 30 31  1  6  0  0  0
M  END
>  <CHROM.1>
-148.93932774,30.98926957,-124.67267570,56.71438813,-73.75260131,-171.02979030
20.73074481,29.16193669,35.66847092,-0.58156776,0.77177226,2.62623835

>  <Name>
ligand

>  <RI>
0

>  <Rbt.Current_Directory>
/home/itssahil/PROJECTS/Mol_Feturizer/New_Systems/rnas/4p3s

>  <Rbt.Executable>
rbdock ($Id: //depot/dev/client3/rdock/2013.1/src/exe/rbdock.cxx#4 $)

>  <Rbt.Library>
libRbt.so (2013.1, Build901 2013/11/27)

>  <Rbt.Parameter_File>
/export/apps/rDock/src/rDock_2013.1_src/data/scripts/dock_solv.prm

>  <Rbt.Receptor>
prm/blind_docking_80.prm

>  <SCORE>
-0.329502

>  <SCORE.INTER>
-6.0107

>  <SCORE.INTER.CONST>
1

>  <SCORE.INTER.POLAR>
0

>  <SCORE.INTER.ROT>
6

>  <SCORE.INTER.SOLV>
22.5316

>  <SCORE.INTER.VDW>
-19.1177

>  <SCORE.INTER.norm>
-0.176785

>  <SCORE.INTRA>
2.50749

>  <SCORE.INTRA.DIHEDRAL>
-6.01704

>  <SCORE.INTRA.DIHEDRAL.0>
15.8194

>  <SCORE.INTRA.POLAR>
0

>  <SCORE.INTRA.POLAR.0>
0

>  <SCORE.INTRA.REPUL>
0

>  <SCORE.INTRA.REPUL.0>
0

>  <SCORE.INTRA.SOLV>
3.1832

>  <SCORE.INTRA.SOLV.lig_0>
-71.9159

>  <SCORE.INTRA.VDW>
3.92441

>  <SCORE.INTRA.VDW.0>
-3.53918

>  <SCORE.INTRA.norm>
0.0737497

>  <SCORE.RESTR>
3.17371

>  <SCORE.RESTR.CAVITY>
3.17371

>  <SCORE.RESTR.norm>
0.0933445

>  <SCORE.SYSTEM>
0

>  <SCORE.SYSTEM.CONST>
0

>  <SCORE.SYSTEM.DIHEDRAL>
0

>  <SCORE.SYSTEM.SOLV>
0

>  <SCORE.SYSTEM.norm>
0

>  <SCORE.heavy>
34

>  <SCORE.norm>
-0.00969124

>  <RMSD>
8.164

$$$$
ligand
 OpenBabel01301917533D
libRbt.so/2013.1/901 2013/11/27
 34 36  0  0  0  0  0  0  0  0999 V2000
   24.8168   30.7187   43.0067 C   0  0  2  0  0  0  0  0  0  0  0  0
   24.7049   29.6858   42.0224 O   0  0  0  0  0  0  0  0  0  0  0  0
   22.6299   29.7125   38.2680 C   0  0  2  0  0  0  0  0  0  0  0  0
   21.5654   29.6336   37.2584 N   0  0  0  0  0  0  0  0  0  0  0  0
   23.7345   32.5222   37.8056 C   0  0  2  0  0  0  0  0  0  0  0  0
   25.6298   30.1439   44.2270 C   0  0  2  0  0  0  0  0  0  0  0  0
   26.9656   29.6945   43.8029 N   0  0  0  0  0  0  0  0  0  0  0  0
   22.5904   28.3863   39.1099 C   0  0  0  0  0  0  0  0  0  0  0  0
   23.6617   34.0756   37.5277 C   0  0  2  0  0  0  0  0  0  0  0  0
   23.5361   34.7882   38.7462 O   0  0  0  0  0  0  0  0  0  0  0  0
   24.8518   28.9642   44.8844 C   0  0  1  0  0  0  0  0  0  0  0  0
   25.5916   28.4355   46.0004 O   0  0  0  0  0  0  0  0  0  0  0  0
   23.7400   28.4633   40.1751 C   0  0  2  0  0  0  0  0  0  0  0  0
   23.7586   27.2340   41.0183 N   0  0  0  0  0  0  0  0  0  0  0  0
   22.4161   34.3510   36.6031 C   0  0  1  0  0  0  0  0  0  0  0  0
   22.2696   35.7956   36.3341 N   0  0  0  0  0  0  0  0  0  0  0  0
   23.4588   29.4792   45.3163 C   0  0  2  0  0  0  0  0  0  0  0  0
   22.7314   28.4130   45.9342 O   0  0  0  0  0  0  0  0  0  0  0  0
   23.5572   29.7044   41.1001 C   0  0  2  0  0  0  0  0  0  0  0  0
   22.5913   33.5639   35.2659 C   0  0  1  0  0  0  0  0  0  0  0  0
   23.7611   34.0440   34.6114 O   0  0  0  0  0  0  0  0  0  0  0  0
   22.7008   30.0383   44.0361 C   0  0  2  0  0  0  0  0  0  0  0  0
   23.4736   31.1319   43.4061 O   0  0  0  0  0  0  0  0  0  0  0  0
   23.5336   30.9898   40.2292 C   0  0  2  0  0  0  0  0  0  0  0  0
   23.3341   32.1055   41.0949 O   0  0  0  0  0  0  0  0  0  0  0  0
   22.7484   32.0438   35.5916 C   0  0  0  0  0  0  0  0  0  0  0  0
   23.8770   31.8056   36.5230 O   0  0  0  0  0  0  0  0  0  0  0  0
   21.2838   30.5866   44.3704 C   0  0  2  0  0  0  0  0  0  0  0  0
   20.4768   29.5235   44.8889 O   0  0  0  0  0  0  0  0  0  0  0  0
   22.3733   30.9699   39.2036 C   0  0  1  0  0  0  0  0  0  0  0  0
   22.4483   32.1938   38.4219 O   0  0  0  0  0  0  0  0  0  0  0  0
   20.5853   31.1462   43.1507 C   0  0  0  0  0  0  0  0  0  0  0  0
   21.4080   33.7643   34.3180 C   0  0  0  0  0  0  0  0  0  0  0  0
   20.9797   36.2292   36.9250 C   0  0  0  0  0  0  0  0  0  0  0  0
  1  2  1  6  0  0  0
  1  6  1  0  0  0  0
  1 23  1  0  0  0  0
  3  4  1  6  0  0  0
  3  8  1  0  0  0  0
  3 30  1  0  0  0  0
  5  9  1  0  0  0  0
  5 27  1  0  0  0  0
  5 31  1  6  0  0  0
  6  7  1  6  0  0  0
  6 11  1  0  0  0  0
  8 13  1  0  0  0  0
  9 10  1  1  0  0  0
  9 15  1  0  0  0  0
 11 12  1  1  0  0  0
 11 17  1  0  0  0  0
 13 14  1  1  0  0  0
 13 19  1  0  0  0  0
 15 16  1  6  0  0  0
 15 20  1  0  0  0  0
 16 34  1  0  0  0  0
 17 18  1  6  0  0  0
 17 22  1  0  0  0  0
 19  2  1  1  0  0  0
 19 24  1  0  0  0  0
 20 21  1  6  0  0  0
 20 26  1  0  0  0  0
 20 33  1  0  0  0  0
 22 23  1  1  0  0  0
 22 28  1  0  0  0  0
 24 25  1  1  0  0  0
 24 30  1  0  0  0  0
 26 27  1  0  0  0  0
 28 29  1  6  0  0  0
 28 32  1  0  0  0  0
 30 31  1  6  0  0  0
M  END
>  <CHROM.1>
153.11494578,179.95649940,-116.51618718,-61.85425345,-63.70737111,-159.23375046
23.15962581,31.20574838,40.34503058,1.21707438,-1.19923879,1.72915150

>  <Name>
ligand

>  <RI>
0

>  <Rbt.Current_Directory>
/home/itssahil/PROJECTS/Mol_Feturizer/New_Systems/rnas/4p3s

>  <Rbt.Executable>
rbdock ($Id: //depot/dev/client3/rdock/2013.1/src/exe/rbdock.cxx#4 $)

>  <Rbt.Library>
libRbt.so (2013.1, Build901 2013/11/27)

>  <Rbt.Parameter_File>
/export/apps/rDock/src/rDock_2013.1_src/data/scripts/dock_solv.prm

>  <Rbt.Receptor>
prm/pocket_docking_8.prm

>  <SCORE>
-9.47455

>  <SCORE.INTER>
-6.49658

>  <SCORE.INTER.CONST>
1

>  <SCORE.INTER.POLAR>
0

>  <SCORE.INTER.ROT>
6

>  <SCORE.INTER.SOLV>
12.7616

>  <SCORE.INTER.VDW>
-16.1849

>  <SCORE.INTER.norm>
-0.191076

>  <SCORE.INTRA>
-2.97796

>  <SCORE.INTRA.DIHEDRAL>
-9.51001

>  <SCORE.INTRA.DIHEDRAL.0>
15.8194

>  <SCORE.INTRA.POLAR>
0

>  <SCORE.INTRA.POLAR.0>
0

>  <SCORE.INTRA.REPUL>
0

>  <SCORE.INTRA.REPUL.0>
0

>  <SCORE.INTRA.SOLV>
0.485165

>  <SCORE.INTRA.SOLV.lig_0>
-71.9159

>  <SCORE.INTRA.VDW>
1.53446

>  <SCORE.INTRA.VDW.0>
-3.53918

>  <SCORE.INTRA.norm>
-0.0875872

>  <SCORE.RESTR>
0

>  <SCORE.RESTR.CAVITY>
0

>  <SCORE.RESTR.norm>
0

>  <SCORE.SYSTEM>
0

>  <SCORE.SYSTEM.CONST>
0

>  <SCORE.SYSTEM.DIHEDRAL>
0

>  <SCORE.SYSTEM.SOLV>
0

>  <SCORE.SYSTEM.norm>
0

>  <SCORE.heavy>
34

>  <SCORE.norm>
-0.278663

>  <RMSD>
8.186

$$$$
ligand
 OpenBabel01301917533D
libRbt.so/2013.1/901 2013/11/27
 34 36  0  0  0  0  0  0  0  0999 V2000
   21.1931   35.7844   31.7542 C   0  0  2  0  0  0  0  0  0  0  0  0
   21.4417   34.5727   31.0345 O   0  0  0  0  0  0  0  0  0  0  0  0
   21.1733   31.3927   33.9012 C   0  0  2  0  0  0  0  0  0  0  0  0
   21.4390   30.1518   34.6415 N   0  0  0  0  0  0  0  0  0  0  0  0
   23.5853   33.6927   35.8551 C   0  0  2  0  0  0  0  0  0  0  0  0
   19.6678   35.8152   32.1457 C   0  0  2  0  0  0  0  0  0  0  0  0
   19.3138   34.6486   32.9702 N   0  0  0  0  0  0  0  0  0  0  0  0
   21.0059   31.0186   32.3843 C   0  0  0  0  0  0  0  0  0  0  0  0
   24.3075   33.0209   37.0890 C   0  0  2  0  0  0  0  0  0  0  0  0
   24.8832   31.7832   36.7083 O   0  0  0  0  0  0  0  0  0  0  0  0
   18.7835   35.8523   30.8628 C   0  0  1  0  0  0  0  0  0  0  0  0
   17.3882   35.8803   31.2160 O   0  0  0  0  0  0  0  0  0  0  0  0
   20.7031   32.3420   31.5974 C   0  0  2  0  0  0  0  0  0  0  0  0
   20.5375   32.0623   30.1424 N   0  0  0  0  0  0  0  0  0  0  0  0
   23.2369   32.7993   38.2235 C   0  0  1  0  0  0  0  0  0  0  0  0
   23.8428   32.1383   39.3969 N   0  0  0  0  0  0  0  0  0  0  0  0
   19.1856   37.0913   30.0290 C   0  0  2  0  0  0  0  0  0  0  0  0
   18.3758   37.1510   28.8505 O   0  0  0  0  0  0  0  0  0  0  0  0
   21.8563   33.3740   31.7825 C   0  0  2  0  0  0  0  0  0  0  0  0
   22.6325   34.1807   38.6293 C   0  0  1  0  0  0  0  0  0  0  0  0
   23.6802   34.9967   39.1430 O   0  0  0  0  0  0  0  0  0  0  0  0
   20.7307   36.9875   29.6713 C   0  0  2  0  0  0  0  0  0  0  0  0
   21.5493   36.9164   30.9020 O   0  0  0  0  0  0  0  0  0  0  0  0
   22.0380   33.6689   33.2963 C   0  0  2  0  0  0  0  0  0  0  0  0
   23.1175   34.5897   33.4399 O   0  0  0  0  0  0  0  0  0  0  0  0
   22.0074   34.8499   37.3632 C   0  0  0  0  0  0  0  0  0  0  0  0
   23.0058   34.9836   36.2753 O   0  0  0  0  0  0  0  0  0  0  0  0
   21.2343   38.1971   28.8325 C   0  0  2  0  0  0  0  0  0  0  0  0
   22.6201   38.0125   28.5233 O   0  0  0  0  0  0  0  0  0  0  0  0
   22.3942   32.3901   34.0939 C   0  0  1  0  0  0  0  0  0  0  0  0
   22.5175   32.7586   35.4952 O   0  0  0  0  0  0  0  0  0  0  0  0
   21.0961   39.5063   29.5779 C   0  0  0  0  0  0  0  0  0  0  0  0
   21.5657   34.0476   39.7169 C   0  0  0  0  0  0  0  0  0  0  0  0
   23.5444   30.6888   39.2938 C   0  0  0  0  0  0  0  0  0  0  0  0
  1  2  1  6  0  0  0
  1  6  1  0  0  0  0
  1 23  1  0  0  0  0
  3  4  1  1  0  0  0
  3  8  1  0  0  0  0
  3 30  1  0  0  0  0
  5  9  1  0  0  0  0
  5 27  1  0  0  0  0
  5 31  1  1  0  0  0
  6  7  1  6  0  0  0
  6 11  1  0  0  0  0
  8 13  1  0  0  0  0
  9 10  1  6  0  0  0
  9 15  1  0  0  0  0
 11 12  1  1  0  0  0
 11 17  1  0  0  0  0
 13 14  1  6  0  0  0
 13 19  1  0  0  0  0
 15 16  1  1  0  0  0
 15 20  1  0  0  0  0
 16 34  1  0  0  0  0
 17 18  1  6  0  0  0
 17 22  1  0  0  0  0
 19  2  1  6  0  0  0
 19 24  1  0  0  0  0
 20 21  1  1  0  0  0
 20 26  1  0  0  0  0
 20 33  1  0  0  0  0
 22 23  1  1  0  0  0
 22 28  1  0  0  0  0
 24 25  1  6  0  0  0
 24 30  1  0  0  0  0
 26 27  1  0  0  0  0
 28 29  1  1  0  0  0
 28 32  1  0  0  0  0
 30 31  1  1  0  0  0
M  END
>  <CHROM.1>
-90.88099775,115.37447612,-97.56501603,-178.51504159,-179.15268200,-131.30343439
21.65040585,34.36755957,33.67139287,-2.52711520,1.17033484,2.94814305

>  <Name>
ligand

>  <RI>
0

>  <Rbt.Current_Directory>
/home/itssahil/PROJECTS/Mol_Feturizer/New_Systems/rnas/4p3s

>  <Rbt.Executable>
rbdock ($Id: //depot/dev/client3/rdock/2013.1/src/exe/rbdock.cxx#4 $)

>  <Rbt.Library>
libRbt.so (2013.1, Build901 2013/11/27)

>  <Rbt.Parameter_File>
/export/apps/rDock/src/rDock_2013.1_src/data/scripts/dock_solv.prm

>  <Rbt.Receptor>
prm/blind_docking_60.prm

>  <SCORE>
10.5793

>  <SCORE.INTER>
-2.22285

>  <SCORE.INTER.CONST>
1

>  <SCORE.INTER.POLAR>
0

>  <SCORE.INTER.ROT>
6

>  <SCORE.INTER.SOLV>
11.096

>  <SCORE.INTER.VDW>
-12.7806

>  <SCORE.INTER.norm>
-0.065378

>  <SCORE.INTRA>
5.61792

>  <SCORE.INTRA.DIHEDRAL>
2.53267

>  <SCORE.INTRA.DIHEDRAL.0>
15.8194

>  <SCORE.INTRA.POLAR>
0

>  <SCORE.INTRA.POLAR.0>
0

>  <SCORE.INTRA.REPUL>
0

>  <SCORE.INTRA.REPUL.0>
0

>  <SCORE.INTRA.SOLV>
2.16856

>  <SCORE.INTRA.SOLV.lig_0>
-71.9159

>  <SCORE.INTRA.VDW>
3.26731

>  <SCORE.INTRA.VDW.0>
-3.53918

>  <SCORE.INTRA.norm>
0.165233

>  <SCORE.RESTR>
7.18425

>  <SCORE.RESTR.CAVITY>
7.18425

>  <SCORE.RESTR.norm>
0.211301

>  <SCORE.SYSTEM>
0

>  <SCORE.SYSTEM.CONST>
0

>  <SCORE.SYSTEM.DIHEDRAL>
0

>  <SCORE.SYSTEM.SOLV>
0

>  <SCORE.SYSTEM.norm>
0

>  <SCORE.heavy>
34

>  <SCORE.norm>
0.311156

>  <RMSD>
8.190

$$$$
ligand
 OpenBabel01301917533D
libRbt.so/2013.1/901 2013/11/27
 34 36  0  0  0  0  0  0  0  0999 V2000
   23.4949   31.2742   36.6715 C   0  0  2  0  0  0  0  0  0  0  0  0
   22.2954   31.1263   37.4380 O   0  0  0  0  0  0  0  0  0  0  0  0
   22.0962   26.8437   37.2889 C   0  0  2  0  0  0  0  0  0  0  0  0
   21.7849   25.4464   37.6192 N   0  0  0  0  0  0  0  0  0  0  0  0
   18.8115   26.4632   35.8530 C   0  0  2  0  0  0  0  0  0  0  0  0
   24.1325   32.6697   37.0275 C   0  0  2  0  0  0  0  0  0  0  0  0
   24.4303   32.7591   38.4660 N   0  0  0  0  0  0  0  0  0  0  0  0
   22.7676   27.4957   38.5512 C   0  0  0  0  0  0  0  0  0  0  0  0
   18.9881   24.9177   35.5781 C   0  0  2  0  0  0  0  0  0  0  0  0
   19.8225   24.3345   36.5642 O   0  0  0  0  0  0  0  0  0  0  0  0
   23.1724   33.8231   36.6068 C   0  0  1  0  0  0  0  0  0  0  0  0
   23.7513   35.1008   36.9306 O   0  0  0  0  0  0  0  0  0  0  0  0
   23.1172   28.9824   38.1909 C   0  0  2  0  0  0  0  0  0  0  0  0
   23.7553   29.6683   39.3506 N   0  0  0  0  0  0  0  0  0  0  0  0
   19.6277   24.7432   34.1489 C   0  0  1  0  0  0  0  0  0  0  0  0
   19.8536   23.3160   33.8441 N   0  0  0  0  0  0  0  0  0  0  0  0
   22.8884   33.6933   35.0920 C   0  0  2  0  0  0  0  0  0  0  0  0
   22.0170   34.7519   34.6821 O   0  0  0  0  0  0  0  0  0  0  0  0
   21.8357   29.7708   37.7839 C   0  0  2  0  0  0  0  0  0  0  0  0
   18.6795   25.3829   33.0858 C   0  0  1  0  0  0  0  0  0  0  0  0
   17.4360   24.6901   33.1174 O   0  0  0  0  0  0  0  0  0  0  0  0
   22.2461   32.2667   34.8126 C   0  0  2  0  0  0  0  0  0  0  0  0
   23.1574   31.1869   35.2527 O   0  0  0  0  0  0  0  0  0  0  0  0
   21.1624   29.0612   36.5779 C   0  0  2  0  0  0  0  0  0  0  0  0
   19.9781   29.7831   36.2463 O   0  0  0  0  0  0  0  0  0  0  0  0
   18.4608   26.8878   33.4448 C   0  0  0  0  0  0  0  0  0  0  0  0
   17.9301   27.0425   34.8205 O   0  0  0  0  0  0  0  0  0  0  0  0
   21.9267   32.0375   33.3073 C   0  0  2  0  0  0  0  0  0  0  0  0
   22.5261   33.0825   32.5335 O   0  0  0  0  0  0  0  0  0  0  0  0
   20.7533   27.6071   36.9197 C   0  0  1  0  0  0  0  0  0  0  0  0
   20.1596   27.0195   35.7294 O   0  0  0  0  0  0  0  0  0  0  0  0
   20.4395   32.0504   33.0304 C   0  0  0  0  0  0  0  0  0  0  0  0
   19.2423   25.2717   31.6681 C   0  0  0  0  0  0  0  0  0  0  0  0
   18.6209   22.5810   34.2192 C   0  0  0  0  0  0  0  0  0  0  0  0
  1  2  1  1  0  0  0
  1  6  1  0  0  0  0
  1 23  1  0  0  0  0
  3  4  1  1  0  0  0
  3  8  1  0  0  0  0
  3 30  1  0  0  0  0
  5  9  1  0  0  0  0
  5 27  1  0  0  0  0
  5 31  1  6  0  0  0
  6  7  1  1  0  0  0
  6 11  1  0  0  0  0
  8 13  1  0  0  0  0
  9 10  1  1  0  0  0
  9 15  1  0  0  0  0
 11 12  1  6  0  0  0
 11 17  1  0  0  0  0
 13 14  1  1  0  0  0
 13 19  1  0  0  0  0
 15 16  1  6  0  0  0
 15 20  1  0  0  0  0
 16 34  1  0  0  0  0
 17 18  1  1  0  0  0
 17 22  1  0  0  0  0
 19  2  1  6  0  0  0
 19 24  1  0  0  0  0
 20 21  1  1  0  0  0
 20 26  1  0  0  0  0
 20 33  1  0  0  0  0
 22 23  1  6  0  0  0
 22 28  1  0  0  0  0
 24 25  1  1  0  0  0
 24 30  1  0  0  0  0
 26 27  1  0  0  0  0
 28 29  1  6  0  0  0
 28 32  1  0  0  0  0
 30 31  1  6  0  0  0
M  END
>  <CHROM.1>
-152.60708316,41.92280819,46.05543853,10.65512682,120.16539404,-115.90602750
21.18806122,28.93338584,35.62681517,-0.68569250,0.97550535,2.55144361

>  <Name>
ligand

>  <RI>
0

>  <Rbt.Current_Directory>
/home/itssahil/PROJECTS/Mol_Feturizer/New_Systems/rnas/4p3s

>  <Rbt.Executable>
rbdock ($Id: //depot/dev/client3/rdock/2013.1/src/exe/rbdock.cxx#4 $)

>  <Rbt.Library>
libRbt.so (2013.1, Build901 2013/11/27)

>  <Rbt.Parameter_File>
/export/apps/rDock/src/rDock_2013.1_src/data/scripts/dock_solv.prm

>  <Rbt.Receptor>
prm/blind_docking_80.prm

>  <SCORE>
13.7337

>  <SCORE.INTER>
-2.30318

>  <SCORE.INTER.CONST>
1

>  <SCORE.INTER.POLAR>
0

>  <SCORE.INTER.ROT>
6

>  <SCORE.INTER.SOLV>
21.5514

>  <SCORE.INTER.VDW>
-16.3192

>  <SCORE.INTER.norm>
-0.0677406

>  <SCORE.INTRA>
14

>  <SCORE.INTRA.DIHEDRAL>
8.12756

>  <SCORE.INTRA.DIHEDRAL.0>
15.8194

>  <SCORE.INTRA.POLAR>
0

>  <SCORE.INTRA.POLAR.0>
0

>  <SCORE.INTRA.REPUL>
0

>  <SCORE.INTRA.REPUL.0>
0

>  <SCORE.INTRA.SOLV>
3.60318

>  <SCORE.INTRA.SOLV.lig_0>
-71.9159

>  <SCORE.INTRA.VDW>
8.13458

>  <SCORE.INTRA.VDW.0>
-3.53918

>  <SCORE.INTRA.norm>
0.411763

>  <SCORE.RESTR>
2.03697

>  <SCORE.RESTR.CAVITY>
2.03697

>  <SCORE.RESTR.norm>
0.059911

>  <SCORE.SYSTEM>
0

>  <SCORE.SYSTEM.CONST>
0

>  <SCORE.SYSTEM.DIHEDRAL>
0

>  <SCORE.SYSTEM.SOLV>
0

>  <SCORE.SYSTEM.norm>
0

>  <SCORE.heavy>
34

>  <SCORE.norm>
0.403934

>  <RMSD>
8.209

$$$$
ligand
 OpenBabel01301917533D
libRbt.so/2013.1/901 2013/11/27
 34 36  0  0  0  0  0  0  0  0999 V2000
   20.3080   23.2985   31.4924 C   0  0  2  0  0  0  0  0  0  0  0  0
   18.9250   23.2319   31.1304 O   0  0  0  0  0  0  0  0  0  0  0  0
   15.2504   23.8413   33.2583 C   0  0  2  0  0  0  0  0  0  0  0  0
   14.1404   23.6772   34.2068 N   0  0  0  0  0  0  0  0  0  0  0  0
   17.4391   25.8550   35.7107 C   0  0  2  0  0  0  0  0  0  0  0  0
   21.1198   22.3999   30.4853 C   0  0  2  0  0  0  0  0  0  0  0  0
   20.9308   22.8611   29.1006 N   0  0  0  0  0  0  0  0  0  0  0  0
   15.4267   22.4830   32.4882 C   0  0  0  0  0  0  0  0  0  0  0  0
   16.7261   26.8983   36.6586 C   0  0  2  0  0  0  0  0  0  0  0  0
   15.6440   26.2861   37.3388 O   0  0  0  0  0  0  0  0  0  0  0  0
   20.6805   20.9105   30.6183 C   0  0  1  0  0  0  0  0  0  0  0  0
   21.4201   20.0855   29.6993 O   0  0  0  0  0  0  0  0  0  0  0  0
   16.5996   22.6654   31.4620 C   0  0  2  0  0  0  0  0  0  0  0  0
   16.8282   21.4072   30.6957 N   0  0  0  0  0  0  0  0  0  0  0  0
   16.2079   28.0931   35.7718 C   0  0  1  0  0  0  0  0  0  0  0  0
   15.4964   29.0904   36.5964 N   0  0  0  0  0  0  0  0  0  0  0  0
   20.8975   20.4671   32.0841 C   0  0  2  0  0  0  0  0  0  0  0  0
   20.5111   19.0964   32.2253 O   0  0  0  0  0  0  0  0  0  0  0  0
   17.9201   23.0559   32.1922 C   0  0  2  0  0  0  0  0  0  0  0  0
   17.4235   28.7536   35.0478 C   0  0  1  0  0  0  0  0  0  0  0  0
   18.3097   29.2690   36.0359 O   0  0  0  0  0  0  0  0  0  0  0  0
   20.0478   21.4145   33.0361 C   0  0  2  0  0  0  0  0  0  0  0  0
   20.4549   22.8273   32.8675 O   0  0  0  0  0  0  0  0  0  0  0  0
   17.6901   24.3645   32.9959 C   0  0  2  0  0  0  0  0  0  0  0  0
   18.9015   24.6819   33.6782 O   0  0  0  0  0  0  0  0  0  0  0  0
   18.1522   27.6683   34.1920 C   0  0  0  0  0  0  0  0  0  0  0  0
   18.5677   26.5142   35.0247 O   0  0  0  0  0  0  0  0  0  0  0  0
   20.2043   21.0491   34.5402 C   0  0  2  0  0  0  0  0  0  0  0  0
   19.7333   19.7138   34.7528 O   0  0  0  0  0  0  0  0  0  0  0  0
   16.5749   24.2002   34.0579 C   0  0  1  0  0  0  0  0  0  0  0  0
   16.4144   25.4760   34.7369 O   0  0  0  0  0  0  0  0  0  0  0  0
   19.4077   21.9701   35.4378 C   0  0  0  0  0  0  0  0  0  0  0  0
   16.9987   29.9147   34.1476 C   0  0  0  0  0  0  0  0  0  0  0  0
   14.0493   28.7705   36.5306 C   0  0  0  0  0  0  0  0  0  0  0  0
  1  2  1  6  0  0  0
  1  6  1  0  0  0  0
  1 23  1  0  0  0  0
  3  4  1  1  0  0  0
  3  8  1  0  0  0  0
  3 30  1  0  0  0  0
  5  9  1  0  0  0  0
  5 27  1  0  0  0  0
  5 31  1  6  0  0  0
  6  7  1  6  0  0  0
  6 11  1  0  0  0  0
  8 13  1  0  0  0  0
  9 10  1  6  0  0  0
  9 15  1  0  0  0  0
 11 12  1  6  0  0  0
 11 17  1  0  0  0  0
 13 14  1  1  0  0  0
 13 19  1  0  0  0  0
 15 16  1  1  0  0  0
 15 20  1  0  0  0  0
 16 34  1  0  0  0  0
 17 18  1  6  0  0  0
 17 22  1  0  0  0  0
 19  2  1  6  0  0  0
 19 24  1  0  0  0  0
 20 21  1  1  0  0  0
 20 26  1  0  0  0  0
 20 33  1  0  0  0  0
 22 23  1  1  0  0  0
 22 28  1  0  0  0  0
 24 25  1  1  0  0  0
 24 30  1  0  0  0  0
 26 27  1  0  0  0  0
 28 29  1  6  0  0  0
 28 32  1  0  0  0  0
 30 31  1  6  0  0  0
M  END
>  <CHROM.1>
135.61412956,-166.06623746,-94.85806054,-61.32638322,169.44477891,-157.37521084
18.11832609,24.18482042,33.56286043,-1.04786142,0.52489997,0.26776370

>  <Name>
ligand

>  <RI>
0

>  <Rbt.Current_Directory>
/home/itssahil/PROJECTS/Mol_Feturizer/New_Systems/rnas/4p3s

>  <Rbt.Executable>
rbdock ($Id: //depot/dev/client3/rdock/2013.1/src/exe/rbdock.cxx#4 $)

>  <Rbt.Library>
libRbt.so (2013.1, Build901 2013/11/27)

>  <Rbt.Parameter_File>
/export/apps/rDock/src/rDock_2013.1_src/data/scripts/dock_solv.prm

>  <Rbt.Receptor>
prm/blind_docking_60.prm

>  <SCORE>
3.51088

>  <SCORE.INTER>
-6.72656

>  <SCORE.INTER.CONST>
1

>  <SCORE.INTER.POLAR>
0

>  <SCORE.INTER.ROT>
6

>  <SCORE.INTER.SOLV>
22.1928

>  <SCORE.INTER.VDW>
-19.482

>  <SCORE.INTER.norm>
-0.19784

>  <SCORE.INTRA>
1.11956

>  <SCORE.INTRA.DIHEDRAL>
-5.22067

>  <SCORE.INTRA.DIHEDRAL.0>
15.8194

>  <SCORE.INTRA.POLAR>
0

>  <SCORE.INTRA.POLAR.0>
0

>  <SCORE.INTRA.REPUL>
0

>  <SCORE.INTRA.REPUL.0>
0

>  <SCORE.INTRA.SOLV>
-0.432398

>  <SCORE.INTRA.SOLV.lig_0>
-71.9159

>  <SCORE.INTRA.VDW>
3.94609

>  <SCORE.INTRA.VDW.0>
-3.53918

>  <SCORE.INTRA.norm>
0.0329282

>  <SCORE.RESTR>
9.11789

>  <SCORE.RESTR.CAVITY>
9.11789

>  <SCORE.RESTR.norm>
0.268173

>  <SCORE.SYSTEM>
0

>  <SCORE.SYSTEM.CONST>
0

>  <SCORE.SYSTEM.DIHEDRAL>
0

>  <SCORE.SYSTEM.SOLV>
0

>  <SCORE.SYSTEM.norm>
0

>  <SCORE.heavy>
34

>  <SCORE.norm>
0.103261

>  <RMSD>
8.213

$$$$
ligand
 OpenBabel01301917533D
libRbt.so/2013.1/901 2013/11/27
 34 36  0  0  0  0  0  0  0  0999 V2000
   20.2822   23.2477   31.6466 C   0  0  2  0  0  0  0  0  0  0  0  0
   18.9063   23.1496   31.2650 O   0  0  0  0  0  0  0  0  0  0  0  0
   15.3130   23.9980   33.4491 C   0  0  2  0  0  0  0  0  0  0  0  0
   14.1893   23.8874   34.3891 N   0  0  0  0  0  0  0  0  0  0  0  0
   16.4312   26.6369   34.2987 C   0  0  2  0  0  0  0  0  0  0  0  0
   21.1358   22.4235   30.6109 C   0  0  2  0  0  0  0  0  0  0  0  0
   20.9456   22.9391   29.2456 N   0  0  0  0  0  0  0  0  0  0  0  0
   15.3441   22.6867   32.5839 C   0  0  0  0  0  0  0  0  0  0  0  0
   17.4278   27.6674   34.9620 C   0  0  2  0  0  0  0  0  0  0  0  0
   18.7678   27.2431   34.7801 O   0  0  0  0  0  0  0  0  0  0  0  0
   20.7475   20.9153   30.6725 C   0  0  1  0  0  0  0  0  0  0  0  0
   21.5254   20.1581   29.7270 O   0  0  0  0  0  0  0  0  0  0  0  0
   16.5326   22.8143   31.5673 C   0  0  2  0  0  0  0  0  0  0  0  0
   16.6265   21.5964   30.7127 N   0  0  0  0  0  0  0  0  0  0  0  0
   17.0880   27.7600   36.4977 C   0  0  1  0  0  0  0  0  0  0  0  0
   18.0116   28.6840   37.1862 N   0  0  0  0  0  0  0  0  0  0  0  0
   20.9641   20.4147   32.1197 C   0  0  2  0  0  0  0  0  0  0  0  0
   20.6245   19.0266   32.1955 O   0  0  0  0  0  0  0  0  0  0  0  0
   17.8855   23.0078   32.3167 C   0  0  2  0  0  0  0  0  0  0  0  0
   15.6122   28.2422   36.6638 C   0  0  1  0  0  0  0  0  0  0  0  0
   15.4961   29.5406   36.0912 O   0  0  0  0  0  0  0  0  0  0  0  0
   20.0715   21.2888   33.1022 C   0  0  2  0  0  0  0  0  0  0  0  0
   20.4307   22.7209   33.0013 O   0  0  0  0  0  0  0  0  0  0  0  0
   17.7955   24.2732   33.2123 C   0  0  2  0  0  0  0  0  0  0  0  0
   19.0322   24.4092   33.9092 O   0  0  0  0  0  0  0  0  0  0  0  0
   14.6681   27.2445   35.9190 C   0  0  0  0  0  0  0  0  0  0  0  0
   15.0457   27.1081   34.4918 O   0  0  0  0  0  0  0  0  0  0  0  0
   20.2246   20.8623   34.5905 C   0  0  2  0  0  0  0  0  0  0  0  0
   19.7641   19.5154   34.7450 O   0  0  0  0  0  0  0  0  0  0  0  0
   16.6663   24.1548   34.2655 C   0  0  1  0  0  0  0  0  0  0  0  0
   16.6422   25.3891   35.0339 O   0  0  0  0  0  0  0  0  0  0  0  0
   19.4163   21.7384   35.5220 C   0  0  0  0  0  0  0  0  0  0  0  0
   15.1977   28.3388   38.1328 C   0  0  0  0  0  0  0  0  0  0  0  0
   18.6017   27.9502   38.3326 C   0  0  0  0  0  0  0  0  0  0  0  0
  1  2  1  6  0  0  0
  1  6  1  0  0  0  0
  1 23  1  0  0  0  0
  3  4  1  1  0  0  0
  3  8  1  0  0  0  0
  3 30  1  0  0  0  0
  5  9  1  0  0  0  0
  5 27  1  0  0  0  0
  5 31  1  1  0  0  0
  6  7  1  6  0  0  0
  6 11  1  0  0  0  0
  8 13  1  0  0  0  0
  9 10  1  1  0  0  0
  9 15  1  0  0  0  0
 11 12  1  6  0  0  0
 11 17  1  0  0  0  0
 13 14  1  1  0  0  0
 13 19  1  0  0  0  0
 15 16  1  1  0  0  0
 15 20  1  0  0  0  0
 16 34  1  0  0  0  0
 17 18  1  6  0  0  0
 17 22  1  0  0  0  0
 19  2  1  6  0  0  0
 19 24  1  0  0  0  0
 20 21  1  6  0  0  0
 20 26  1  0  0  0  0
 20 33  1  0  0  0  0
 22 23  1  1  0  0  0
 22 28  1  0  0  0  0
 24 25  1  1  0  0  0
 24 30  1  0  0  0  0
 26 27  1  0  0  0  0
 28 29  1  6  0  0  0
 28 32  1  0  0  0  0
 30 31  1  6  0  0  0
M  END
>  <CHROM.1>
140.81719078,-175.57484154,-126.60725412,-62.89686927,-57.02359212,-139.02159543
18.06118424,24.14738538,33.76275575,-1.08783666,-0.31920754,0.76698885

>  <Name>
ligand

>  <RI>
0

>  <Rbt.Current_Directory>
/home/itssahil/PROJECTS/Mol_Feturizer/New_Systems/rnas/4p3s

>  <Rbt.Executable>
rbdock ($Id: //depot/dev/client3/rdock/2013.1/src/exe/rbdock.cxx#4 $)

>  <Rbt.Library>
libRbt.so (2013.1, Build901 2013/11/27)

>  <Rbt.Parameter_File>
/export/apps/rDock/src/rDock_2013.1_src/data/scripts/dock_solv.prm

>  <Rbt.Receptor>
prm/blind_docking_60.prm

>  <SCORE>
6.05552

>  <SCORE.INTER>
-4.14824

>  <SCORE.INTER.CONST>
1

>  <SCORE.INTER.POLAR>
0

>  <SCORE.INTER.ROT>
6

>  <SCORE.INTER.SOLV>
20.8885

>  <SCORE.INTER.VDW>
-17.3283

>  <SCORE.INTER.norm>
-0.122007

>  <SCORE.INTRA>
1.2522

>  <SCORE.INTRA.DIHEDRAL>
-3.59416

>  <SCORE.INTRA.DIHEDRAL.0>
15.8194

>  <SCORE.INTRA.POLAR>
0

>  <SCORE.INTRA.POLAR.0>
0

>  <SCORE.INTRA.REPUL>
0

>  <SCORE.INTRA.REPUL.0>
0

>  <SCORE.INTRA.SOLV>
0.677207

>  <SCORE.INTRA.SOLV.lig_0>
-71.9159

>  <SCORE.INTRA.VDW>
2.71068

>  <SCORE.INTRA.VDW.0>
-3.53918

>  <SCORE.INTRA.norm>
0.0368295

>  <SCORE.RESTR>
8.95156

>  <SCORE.RESTR.CAVITY>
8.95156

>  <SCORE.RESTR.norm>
0.263281

>  <SCORE.SYSTEM>
0

>  <SCORE.SYSTEM.CONST>
0

>  <SCORE.SYSTEM.DIHEDRAL>
0

>  <SCORE.SYSTEM.SOLV>
0

>  <SCORE.SYSTEM.norm>
0

>  <SCORE.heavy>
34

>  <SCORE.norm>
0.178104

>  <RMSD>
8.225

$$$$
ligand
 OpenBabel01301917533D
libRbt.so/2013.1/901 2013/11/27
 34 36  0  0  0  0  0  0  0  0999 V2000
   23.2420   30.6603   36.8972 C   0  0  2  0  0  0  0  0  0  0  0  0
   22.0281   30.6117   37.6537 O   0  0  0  0  0  0  0  0  0  0  0  0
   20.9605   26.5894   36.6129 C   0  0  2  0  0  0  0  0  0  0  0  0
   20.2875   25.2836   36.5876 N   0  0  0  0  0  0  0  0  0  0  0  0
   18.1078   27.4638   34.4730 C   0  0  2  0  0  0  0  0  0  0  0  0
   24.1011   31.8679   37.4302 C   0  0  2  0  0  0  0  0  0  0  0  0
   24.3974   31.7093   38.8630 N   0  0  0  0  0  0  0  0  0  0  0  0
   21.4304   26.8571   38.0883 C   0  0  0  0  0  0  0  0  0  0  0  0
   17.6279   26.0156   34.8828 C   0  0  2  0  0  0  0  0  0  0  0  0
   17.8195   25.8083   36.2716 O   0  0  0  0  0  0  0  0  0  0  0  0
   23.3514   33.2119   37.1840 C   0  0  1  0  0  0  0  0  0  0  0  0
   24.1333   34.3187   37.6699 O   0  0  0  0  0  0  0  0  0  0  0  0
   22.1660   28.2430   38.1104 C   0  0  2  0  0  0  0  0  0  0  0  0
   22.6364   28.5666   39.4875 N   0  0  0  0  0  0  0  0  0  0  0  0
   18.4639   24.9686   34.0539 C   0  0  1  0  0  0  0  0  0  0  0  0
   18.0875   23.5878   34.4182 N   0  0  0  0  0  0  0  0  0  0  0  0
   23.0627   33.3391   35.6699 C   0  0  2  0  0  0  0  0  0  0  0  0
   22.3843   34.5742   35.4202 O   0  0  0  0  0  0  0  0  0  0  0  0
   21.2198   29.3813   37.6222 C   0  0  2  0  0  0  0  0  0  0  0  0
   18.2208   25.2147   32.5312 C   0  0  1  0  0  0  0  0  0  0  0  0
   16.8379   25.0140   32.2583 O   0  0  0  0  0  0  0  0  0  0  0  0
   22.1929   32.0915   35.2086 C   0  0  2  0  0  0  0  0  0  0  0  0
   22.9067   30.8249   35.4847 O   0  0  0  0  0  0  0  0  0  0  0  0
   20.7222   29.0506   36.1888 C   0  0  2  0  0  0  0  0  0  0  0  0
   19.8355   30.0897   35.7790 O   0  0  0  0  0  0  0  0  0  0  0  0
   18.6246   26.6842   32.1865 C   0  0  0  0  0  0  0  0  0  0  0  0
   17.8864   27.6576   33.0266 O   0  0  0  0  0  0  0  0  0  0  0  0
   21.8525   32.1263   33.6909 C   0  0  2  0  0  0  0  0  0  0  0  0
   21.1318   33.3279   33.3965 O   0  0  0  0  0  0  0  0  0  0  0  0
   19.9418   27.7138   36.1438 C   0  0  1  0  0  0  0  0  0  0  0  0
   19.5417   27.4773   34.7658 O   0  0  0  0  0  0  0  0  0  0  0  0
   20.9920   30.9549   33.2713 C   0  0  0  0  0  0  0  0  0  0  0  0
   19.0170   24.2465   31.6550 C   0  0  0  0  0  0  0  0  0  0  0  0
   19.3301   22.8757   34.8049 C   0  0  0  0  0  0  0  0  0  0  0  0
  1  2  1  1  0  0  0
  1  6  1  0  0  0  0
  1 23  1  0  0  0  0
  3  4  1  1  0  0  0
  3  8  1  0  0  0  0
  3 30  1  0  0  0  0
  5  9  1  0  0  0  0
  5 27  1  0  0  0  0
  5 31  1  6  0  0  0
  6  7  1  1  0  0  0
  6 11  1  0  0  0  0
  8 13  1  0  0  0  0
  9 10  1  1  0  0  0
  9 15  1  0  0  0  0
 11 12  1  6  0  0  0
 11 17  1  0  0  0  0
 13 14  1  1  0  0  0
 13 19  1  0  0  0  0
 15 16  1  1  0  0  0
 15 20  1  0  0  0  0
 16 34  1  0  0  0  0
 17 18  1  1  0  0  0
 17 22  1  0  0  0  0
 19  2  1  6  0  0  0
 19 24  1  0  0  0  0
 20 21  1  6  0  0  0
 20 26  1  0  0  0  0
 20 33  1  0  0  0  0
 22 23  1  6  0  0  0
 22 28  1  0  0  0  0
 24 25  1  1  0  0  0
 24 30  1  0  0  0  0
 26 27  1  0  0  0  0
 28 29  1  1  0  0  0
 28 32  1  0  0  0  0
 30 31  1  6  0  0  0
M  END
>  <CHROM.1>
-163.36072578,57.34533314,-125.65117854,-58.85763086,128.89165124,-81.26964165
20.70077002,28.80276952,35.49253007,-0.48650659,0.95782152,2.49984197

>  <Name>
ligand

>  <RI>
0

>  <Rbt.Current_Directory>
/home/itssahil/PROJECTS/Mol_Feturizer/New_Systems/rnas/4p3s

>  <Rbt.Executable>
rbdock ($Id: //depot/dev/client3/rdock/2013.1/src/exe/rbdock.cxx#4 $)

>  <Rbt.Library>
libRbt.so (2013.1, Build901 2013/11/27)

>  <Rbt.Parameter_File>
/export/apps/rDock/src/rDock_2013.1_src/data/scripts/dock_solv.prm

>  <Rbt.Receptor>
prm/blind_docking_80.prm

>  <SCORE>
2.92749

>  <SCORE.INTER>
-0.233845

>  <SCORE.INTER.CONST>
1

>  <SCORE.INTER.POLAR>
0

>  <SCORE.INTER.ROT>
6

>  <SCORE.INTER.SOLV>
19.2052

>  <SCORE.INTER.VDW>
-14.1576

>  <SCORE.INTER.norm>
-0.00687779

>  <SCORE.INTRA>
0.686288

>  <SCORE.INTRA.DIHEDRAL>
-4.52179

>  <SCORE.INTRA.DIHEDRAL.0>
15.8194

>  <SCORE.INTRA.POLAR>
0

>  <SCORE.INTRA.POLAR.0>
0

>  <SCORE.INTRA.REPUL>
0

>  <SCORE.INTRA.REPUL.0>
0

>  <SCORE.INTRA.SOLV>
4.87273

>  <SCORE.INTRA.SOLV.lig_0>
-71.9159

>  <SCORE.INTRA.VDW>
0.510818

>  <SCORE.INTRA.VDW.0>
-3.53918

>  <SCORE.INTRA.norm>
0.0201849

>  <SCORE.RESTR>
2.47505

>  <SCORE.RESTR.CAVITY>
2.47505

>  <SCORE.RESTR.norm>
0.0727955

>  <SCORE.SYSTEM>
0

>  <SCORE.SYSTEM.CONST>
0

>  <SCORE.SYSTEM.DIHEDRAL>
0

>  <SCORE.SYSTEM.SOLV>
0

>  <SCORE.SYSTEM.norm>
0

>  <SCORE.heavy>
34

>  <SCORE.norm>
0.0861026

>  <RMSD>
8.227

$$$$
ligand
 OpenBabel01301917533D
libRbt.so/2013.1/901 2013/11/27
 34 36  0  0  0  0  0  0  0  0999 V2000
   21.1144   31.1062   40.6326 C   0  0  2  0  0  0  0  0  0  0  0  0
   21.4868   32.4509   40.3141 O   0  0  0  0  0  0  0  0  0  0  0  0
   21.1686   34.7427   36.7019 C   0  0  2  0  0  0  0  0  0  0  0  0
   21.4011   35.2490   35.3424 N   0  0  0  0  0  0  0  0  0  0  0  0
   19.3329   33.4675   34.4977 C   0  0  2  0  0  0  0  0  0  0  0  0
   20.9836   30.9939   42.1982 C   0  0  2  0  0  0  0  0  0  0  0  0
   19.9775   31.9382   42.7100 N   0  0  0  0  0  0  0  0  0  0  0  0
   22.5397   34.7826   37.4685 C   0  0  0  0  0  0  0  0  0  0  0  0
   17.8065   33.4466   34.0915 C   0  0  2  0  0  0  0  0  0  0  0  0
   17.1116   34.5012   34.7346 O   0  0  0  0  0  0  0  0  0  0  0  0
   22.3622   31.2619   42.8741 C   0  0  1  0  0  0  0  0  0  0  0  0
   22.2472   31.1604   44.3054 O   0  0  0  0  0  0  0  0  0  0  0  0
   22.2863   34.2599   38.9262 C   0  0  2  0  0  0  0  0  0  0  0  0
   23.5521   34.2645   39.7138 N   0  0  0  0  0  0  0  0  0  0  0  0
   17.2038   32.0550   34.5188 C   0  0  1  0  0  0  0  0  0  0  0  0
   15.7639   31.9845   34.1984 N   0  0  0  0  0  0  0  0  0  0  0  0
   23.3865   30.2491   42.3111 C   0  0  2  0  0  0  0  0  0  0  0  0
   24.6584   30.4704   42.9287 O   0  0  0  0  0  0  0  0  0  0  0  0
   21.7134   32.8106   38.9044 C   0  0  2  0  0  0  0  0  0  0  0  0
   17.9808   30.9171   33.7840 C   0  0  1  0  0  0  0  0  0  0  0  0
   17.7999   31.0821   32.3814 O   0  0  0  0  0  0  0  0  0  0  0  0
   23.4650   30.4244   40.7334 C   0  0  2  0  0  0  0  0  0  0  0  0
   22.1388   30.2020   40.1154 O   0  0  0  0  0  0  0  0  0  0  0  0
   20.3956   32.7959   38.0829 C   0  0  2  0  0  0  0  0  0  0  0  0
   19.9099   31.4554   38.0521 O   0  0  0  0  0  0  0  0  0  0  0  0
   19.4975   31.0282   34.1428 C   0  0  0  0  0  0  0  0  0  0  0  0
   20.0346   32.3684   33.8060 O   0  0  0  0  0  0  0  0  0  0  0  0
   24.4714   29.4407   40.0703 C   0  0  2  0  0  0  0  0  0  0  0  0
   24.2378   28.1191   40.5694 O   0  0  0  0  0  0  0  0  0  0  0  0
   20.6227   33.2535   36.6209 C   0  0  1  0  0  0  0  0  0  0  0  0
   19.3368   33.2325   35.9423 O   0  0  0  0  0  0  0  0  0  0  0  0
   25.9085   29.8033   40.3732 C   0  0  0  0  0  0  0  0  0  0  0  0
   17.4659   29.5278   34.1630 C   0  0  0  0  0  0  0  0  0  0  0  0
   15.0167   32.3362   35.4307 C   0  0  0  0  0  0  0  0  0  0  0  0
  1  2  1  1  0  0  0
  1  6  1  0  0  0  0
  1 23  1  0  0  0  0
  3  4  1  6  0  0  0
  3  8  1  0  0  0  0
  3 30  1  0  0  0  0
  5  9  1  0  0  0  0
  5 27  1  0  0  0  0
  5 31  1  1  0  0  0
  6  7  1  1  0  0  0
  6 11  1  0  0  0  0
  8 13  1  0  0  0  0
  9 10  1  1  0  0  0
  9 15  1  0  0  0  0
 11 12  1  1  0  0  0
 11 17  1  0  0  0  0
 13 14  1  1  0  0  0
 13 19  1  0  0  0  0
 15 16  1  6  0  0  0
 15 20  1  0  0  0  0
 16 34  1  0  0  0  0
 17 18  1  1  0  0  0
 17 22  1  0  0  0  0
 19  2  1  1  0  0  0
 19 24  1  0  0  0  0
 20 21  1  6  0  0  0
 20 26  1  0  0  0  0
 20 33  1  0  0  0  0
 22 23  1  6  0  0  0
 22 28  1  0  0  0  0
 24 25  1  6  0  0  0
 24 30  1  0  0  0  0
 26 27  1  0  0  0  0
 28 29  1  1  0  0  0
 28 32  1  0  0  0  0
 30 31  1  6  0  0  0
M  END
>  <CHROM.1>
178.23323253,-172.36668860,-96.55538102,48.01356589,72.09676408,-177.45407326
20.71489309,31.94646986,37.99248773,0.60171215,0.79637594,2.59433111

>  <Name>
ligand

>  <RI>
0

>  <Rbt.Current_Directory>
/home/itssahil/PROJECTS/Mol_Feturizer/New_Systems/rnas/4p3s

>  <Rbt.Executable>
rbdock ($Id: //depot/dev/client3/rdock/2013.1/src/exe/rbdock.cxx#4 $)

>  <Rbt.Library>
libRbt.so (2013.1, Build901 2013/11/27)

>  <Rbt.Parameter_File>
/export/apps/rDock/src/rDock_2013.1_src/data/scripts/dock_solv.prm

>  <Rbt.Receptor>
prm/pocket_docking_7.prm

>  <SCORE>
-6.44782

>  <SCORE.INTER>
-0.387344

>  <SCORE.INTER.CONST>
1

>  <SCORE.INTER.POLAR>
0

>  <SCORE.INTER.ROT>
6

>  <SCORE.INTER.SOLV>
10.623

>  <SCORE.INTER.VDW>
-11.3992

>  <SCORE.INTER.norm>
-0.0113925

>  <SCORE.INTRA>
-6.06048

>  <SCORE.INTRA.DIHEDRAL>
-13.3912

>  <SCORE.INTRA.DIHEDRAL.0>
15.8194

>  <SCORE.INTRA.POLAR>
0

>  <SCORE.INTRA.POLAR.0>
0

>  <SCORE.INTRA.REPUL>
0

>  <SCORE.INTRA.REPUL.0>
0

>  <SCORE.INTRA.SOLV>
-0.482727

>  <SCORE.INTRA.SOLV.lig_0>
-71.9159

>  <SCORE.INTRA.VDW>
0.876466

>  <SCORE.INTRA.VDW.0>
-3.53918

>  <SCORE.INTRA.norm>
-0.178249

>  <SCORE.RESTR>
0

>  <SCORE.RESTR.CAVITY>
0

>  <SCORE.RESTR.norm>
0

>  <SCORE.SYSTEM>
0

>  <SCORE.SYSTEM.CONST>
0

>  <SCORE.SYSTEM.DIHEDRAL>
0

>  <SCORE.SYSTEM.SOLV>
0

>  <SCORE.SYSTEM.norm>
0

>  <SCORE.heavy>
34

>  <SCORE.norm>
-0.189642

>  <RMSD>
8.233

$$$$
ligand
 OpenBabel01301917533D
libRbt.so/2013.1/901 2013/11/27
 34 36  0  0  0  0  0  0  0  0999 V2000
   20.8385   21.1967   33.2175 C   0  0  2  0  0  0  0  0  0  0  0  0
   19.5906   21.0175   32.5402 O   0  0  0  0  0  0  0  0  0  0  0  0
   18.7232   25.1777   31.9545 C   0  0  2  0  0  0  0  0  0  0  0  0
   18.1582   26.4272   31.4272 N   0  0  0  0  0  0  0  0  0  0  0  0
   16.2196   26.2392   33.4853 C   0  0  2  0  0  0  0  0  0  0  0  0
   21.1091   19.9133   34.0895 C   0  0  2  0  0  0  0  0  0  0  0  0
   21.1523   18.7066   33.2482 N   0  0  0  0  0  0  0  0  0  0  0  0
   19.3524   24.3905   30.7488 C   0  0  0  0  0  0  0  0  0  0  0  0
   17.0401   27.4294   34.1221 C   0  0  2  0  0  0  0  0  0  0  0  0
   18.3008   27.5535   33.4867 O   0  0  0  0  0  0  0  0  0  0  0  0
   20.0091   19.7642   35.1835 C   0  0  1  0  0  0  0  0  0  0  0  0
   20.2525   18.5920   35.9830 O   0  0  0  0  0  0  0  0  0  0  0  0
   19.9725   23.0654   31.3161 C   0  0  2  0  0  0  0  0  0  0  0  0
   20.5853   22.2608   30.2208 N   0  0  0  0  0  0  0  0  0  0  0  0
   17.2293   27.1293   35.6571 C   0  0  1  0  0  0  0  0  0  0  0  0
   18.0236   28.1912   36.3069 N   0  0  0  0  0  0  0  0  0  0  0  0
   19.9997   21.0493   36.0440 C   0  0  2  0  0  0  0  0  0  0  0  0
   19.0032   20.9279   37.0640 O   0  0  0  0  0  0  0  0  0  0  0  0
   18.8850   22.2028   32.0251 C   0  0  2  0  0  0  0  0  0  0  0  0
   15.8248   27.0121   36.3294 C   0  0  1  0  0  0  0  0  0  0  0  0
   15.1527   28.2593   36.1872 O   0  0  0  0  0  0  0  0  0  0  0  0
   19.7188   22.2957   35.0986 C   0  0  2  0  0  0  0  0  0  0  0  0
   20.7535   22.3975   34.0454 O   0  0  0  0  0  0  0  0  0  0  0  0
   18.2387   23.0347   33.1660 C   0  0  2  0  0  0  0  0  0  0  0  0
   17.2278   22.2354   33.7766 O   0  0  0  0  0  0  0  0  0  0  0  0
   15.0144   25.8849   35.6125 C   0  0  0  0  0  0  0  0  0  0  0  0
   14.9083   26.1398   34.1558 O   0  0  0  0  0  0  0  0  0  0  0  0
   19.6943   23.6436   35.8752 C   0  0  2  0  0  0  0  0  0  0  0  0
   19.5092   24.7189   34.9480 O   0  0  0  0  0  0  0  0  0  0  0  0
   17.5675   24.3235   32.6305 C   0  0  1  0  0  0  0  0  0  0  0  0
   17.0172   25.0448   33.7670 O   0  0  0  0  0  0  0  0  0  0  0  0
   20.9842   23.8946   36.6247 C   0  0  0  0  0  0  0  0  0  0  0  0
   15.9234   26.7002   37.8233 C   0  0  0  0  0  0  0  0  0  0  0  0
   19.4539   27.8202   36.1751 C   0  0  0  0  0  0  0  0  0  0  0  0
  1  2  1  1  0  0  0
  1  6  1  0  0  0  0
  1 23  1  0  0  0  0
  3  4  1  6  0  0  0
  3  8  1  0  0  0  0
  3 30  1  0  0  0  0
  5  9  1  0  0  0  0
  5 27  1  0  0  0  0
  5 31  1  1  0  0  0
  6  7  1  6  0  0  0
  6 11  1  0  0  0  0
  8 13  1  0  0  0  0
  9 10  1  6  0  0  0
  9 15  1  0  0  0  0
 11 12  1  1  0  0  0
 11 17  1  0  0  0  0
 13 14  1  6  0  0  0
 13 19  1  0  0  0  0
 15 16  1  1  0  0  0
 15 20  1  0  0  0  0
 16 34  1  0  0  0  0
 17 18  1  1  0  0  0
 17 22  1  0  0  0  0
 19  2  1  1  0  0  0
 19 24  1  0  0  0  0
 20 21  1  6  0  0  0
 20 26  1  0  0  0  0
 20 33  1  0  0  0  0
 22 23  1  6  0  0  0
 22 28  1  0  0  0  0
 24 25  1  6  0  0  0
 24 30  1  0  0  0  0
 26 27  1  0  0  0  0
 28 29  1  6  0  0  0
 28 32  1  0  0  0  0
 30 31  1  1  0  0  0
M  END
>  <CHROM.1>
159.98193276,45.32182121,-88.08232963,176.89678027,70.29083391,-115.90926969
18.55697795,23.96853939,34.27906905,-0.04601136,1.06457716,-1.31912078

>  <Name>
ligand

>  <RI>
0

>  <Rbt.Current_Directory>
/home/itssahil/PROJECTS/Mol_Feturizer/New_Systems/rnas/4p3s

>  <Rbt.Executable>
rbdock ($Id: //depot/dev/client3/rdock/2013.1/src/exe/rbdock.cxx#4 $)

>  <Rbt.Library>
libRbt.so (2013.1, Build901 2013/11/27)

>  <Rbt.Parameter_File>
/export/apps/rDock/src/rDock_2013.1_src/data/scripts/dock_solv.prm

>  <Rbt.Receptor>
prm/blind_docking_60.prm

>  <SCORE>
105.206

>  <SCORE.INTER>
92.2693

>  <SCORE.INTER.CONST>
1

>  <SCORE.INTER.POLAR>
0

>  <SCORE.INTER.ROT>
6

>  <SCORE.INTER.SOLV>
28.1224

>  <SCORE.INTER.VDW>
44.5388

>  <SCORE.INTER.norm>
2.7138

>  <SCORE.INTRA>
7.92227

>  <SCORE.INTRA.DIHEDRAL>
-4.751

>  <SCORE.INTRA.DIHEDRAL.0>
15.8194

>  <SCORE.INTRA.POLAR>
0

>  <SCORE.INTRA.POLAR.0>
0

>  <SCORE.INTRA.REPUL>
0

>  <SCORE.INTRA.REPUL.0>
0

>  <SCORE.INTRA.SOLV>
4.37898

>  <SCORE.INTRA.SOLV.lig_0>
-71.9159

>  <SCORE.INTRA.VDW>
8.10828

>  <SCORE.INTRA.VDW.0>
-3.53918

>  <SCORE.INTRA.norm>
0.233008

>  <SCORE.RESTR>
5.01397

>  <SCORE.RESTR.CAVITY>
5.01397

>  <SCORE.RESTR.norm>
0.14747

>  <SCORE.SYSTEM>
0

>  <SCORE.SYSTEM.CONST>
0

>  <SCORE.SYSTEM.DIHEDRAL>
0

>  <SCORE.SYSTEM.SOLV>
0

>  <SCORE.SYSTEM.norm>
0

>  <SCORE.heavy>
34

>  <SCORE.norm>
3.09428

>  <RMSD>
8.270

$$$$
ligand
 OpenBabel01301917533D
libRbt.so/2013.1/901 2013/11/27
 34 36  0  0  0  0  0  0  0  0999 V2000
   22.4636   32.2664   38.2737 C   0  0  2  0  0  0  0  0  0  0  0  0
   22.0580   31.8192   36.9762 O   0  0  0  0  0  0  0  0  0  0  0  0
   18.2329   33.7610   36.9565 C   0  0  2  0  0  0  0  0  0  0  0  0
   16.9597   34.3369   36.5026 N   0  0  0  0  0  0  0  0  0  0  0  0
   15.7758   31.7996   37.1331 C   0  0  2  0  0  0  0  0  0  0  0  0
   23.9626   31.8349   38.4920 C   0  0  2  0  0  0  0  0  0  0  0  0
   24.8320   32.4152   37.4559 N   0  0  0  0  0  0  0  0  0  0  0  0
   19.3832   34.4145   36.1086 C   0  0  0  0  0  0  0  0  0  0  0  0
   14.9158   30.9641   38.1615 C   0  0  2  0  0  0  0  0  0  0  0  0
   15.0868   31.4721   39.4734 O   0  0  0  0  0  0  0  0  0  0  0  0
   24.0823   30.2810   38.4826 C   0  0  1  0  0  0  0  0  0  0  0  0
   25.4511   29.8822   38.6817 O   0  0  0  0  0  0  0  0  0  0  0  0
   20.7439   33.8131   36.6075 C   0  0  2  0  0  0  0  0  0  0  0  0
   21.8854   34.3867   35.8390 N   0  0  0  0  0  0  0  0  0  0  0  0
   15.3886   29.4628   38.0913 C   0  0  1  0  0  0  0  0  0  0  0  0
   14.6454   28.6312   39.0592 N   0  0  0  0  0  0  0  0  0  0  0  0
   23.1572   29.7140   39.5848 C   0  0  2  0  0  0  0  0  0  0  0  0
   23.2614   28.2868   39.6013 O   0  0  0  0  0  0  0  0  0  0  0  0
   20.7579   32.2629   36.4459 C   0  0  2  0  0  0  0  0  0  0  0  0
   15.1749   28.9297   36.6393 C   0  0  1  0  0  0  0  0  0  0  0  0
   13.7839   28.9849   36.3400 O   0  0  0  0  0  0  0  0  0  0  0  0
   21.6677   30.1875   39.2959 C   0  0  2  0  0  0  0  0  0  0  0  0
   21.5833   31.6648   39.2725 O   0  0  0  0  0  0  0  0  0  0  0  0
   19.5696   31.6570   37.2410 C   0  0  2  0  0  0  0  0  0  0  0  0
   19.5868   30.2437   37.0512 O   0  0  0  0  0  0  0  0  0  0  0  0
   15.9704   29.8365   35.6462 C   0  0  0  0  0  0  0  0  0  0  0  0
   15.5704   31.2582   35.7754 O   0  0  0  0  0  0  0  0  0  0  0  0
   20.6570   29.6686   40.3586 C   0  0  2  0  0  0  0  0  0  0  0  0
   20.6557   28.2368   40.3488 O   0  0  0  0  0  0  0  0  0  0  0  0
   18.2062   32.1886   36.7342 C   0  0  1  0  0  0  0  0  0  0  0  0
   17.1627   31.5896   37.5509 O   0  0  0  0  0  0  0  0  0  0  0  0
   19.2451   30.1353   40.0801 C   0  0  0  0  0  0  0  0  0  0  0  0
   15.6306   27.4781   36.4837 C   0  0  0  0  0  0  0  0  0  0  0  0
   15.6338   28.0642   40.0090 C   0  0  0  0  0  0  0  0  0  0  0  0
  1  2  1  6  0  0  0
  1  6  1  0  0  0  0
  1 23  1  0  0  0  0
  3  4  1  6  0  0  0
  3  8  1  0  0  0  0
  3 30  1  0  0  0  0
  5  9  1  0  0  0  0
  5 27  1  0  0  0  0
  5 31  1  1  0  0  0
  6  7  1  6  0  0  0
  6 11  1  0  0  0  0
  8 13  1  0  0  0  0
  9 10  1  1  0  0  0
  9 15  1  0  0  0  0
 11 12  1  1  0  0  0
 11 17  1  0  0  0  0
 13 14  1  6  0  0  0
 13 19  1  0  0  0  0
 15 16  1  1  0  0  0
 15 20  1  0  0  0  0
 16 34  1  0  0  0  0
 17 18  1  6  0  0  0
 17 22  1  0  0  0  0
 19  2  1  1  0  0  0
 19 24  1  0  0  0  0
 20 21  1  6  0  0  0
 20 26  1  0  0  0  0
 20 33  1  0  0  0  0
 22 23  1  1  0  0  0
 22 28  1  0  0  0  0
 24 25  1  6  0  0  0
 24 30  1  0  0  0  0
 26 27  1  0  0  0  0
 28 29  1  6  0  0  0
 28 32  1  0  0  0  0
 30 31  1  1  0  0  0
M  END
>  <CHROM.1>
-171.31503097,50.82143408,-118.75991615,-60.97249299,73.03636628,176.76014407
19.19835041,30.89401969,37.86362183,0.05484778,-0.17292585,-0.55490151

>  <Name>
ligand

>  <RI>
0

>  <Rbt.Current_Directory>
/home/itssahil/PROJECTS/Mol_Feturizer/New_Systems/rnas/4p3s

>  <Rbt.Executable>
rbdock ($Id: //depot/dev/client3/rdock/2013.1/src/exe/rbdock.cxx#4 $)

>  <Rbt.Library>
libRbt.so (2013.1, Build901 2013/11/27)

>  <Rbt.Parameter_File>
/export/apps/rDock/src/rDock_2013.1_src/data/scripts/dock_solv.prm

>  <Rbt.Receptor>
prm/pocket_docking_5.prm

>  <SCORE>
-4.19034

>  <SCORE.INTER>
1.42182

>  <SCORE.INTER.CONST>
1

>  <SCORE.INTER.POLAR>
0

>  <SCORE.INTER.ROT>
6

>  <SCORE.INTER.SOLV>
10.6878

>  <SCORE.INTER.VDW>
-10.2147

>  <SCORE.INTER.norm>
0.0418183

>  <SCORE.INTRA>
-5.61611

>  <SCORE.INTRA.DIHEDRAL>
-12.8854

>  <SCORE.INTRA.DIHEDRAL.0>
15.8194

>  <SCORE.INTRA.POLAR>
0

>  <SCORE.INTRA.POLAR.0>
0

>  <SCORE.INTRA.REPUL>
0

>  <SCORE.INTRA.REPUL.0>
0

>  <SCORE.INTRA.SOLV>
1.1609

>  <SCORE.INTRA.SOLV.lig_0>
-71.9159

>  <SCORE.INTRA.VDW>
0.24614

>  <SCORE.INTRA.VDW.0>
-3.53918

>  <SCORE.INTRA.norm>
-0.16518

>  <SCORE.RESTR>
0.00394774

>  <SCORE.RESTR.CAVITY>
0.00394774

>  <SCORE.RESTR.norm>
0.00011611

>  <SCORE.SYSTEM>
0

>  <SCORE.SYSTEM.CONST>
0

>  <SCORE.SYSTEM.DIHEDRAL>
0

>  <SCORE.SYSTEM.SOLV>
0

>  <SCORE.SYSTEM.norm>
0

>  <SCORE.heavy>
34

>  <SCORE.norm>
-0.123245

>  <RMSD>
8.279

$$$$
ligand
 OpenBabel01301917533D
libRbt.so/2013.1/901 2013/11/27
 34 36  0  0  0  0  0  0  0  0999 V2000
   21.3249   32.5200   34.7203 C   0  0  2  0  0  0  0  0  0  0  0  0
   21.9597   31.2376   34.6974 O   0  0  0  0  0  0  0  0  0  0  0  0
   22.5642   27.7940   37.1831 C   0  0  2  0  0  0  0  0  0  0  0  0
   22.5029   26.8579   38.3138 N   0  0  0  0  0  0  0  0  0  0  0  0
   19.7003   25.8899   36.7480 C   0  0  2  0  0  0  0  0  0  0  0  0
   21.2503   33.0541   33.2405 C   0  0  2  0  0  0  0  0  0  0  0  0
   20.4953   32.1249   32.3846 N   0  0  0  0  0  0  0  0  0  0  0  0
   23.0465   29.1830   37.7372 C   0  0  0  0  0  0  0  0  0  0  0  0
   18.8469   25.1416   35.6493 C   0  0  2  0  0  0  0  0  0  0  0  0
   19.6622   24.2368   34.9247 O   0  0  0  0  0  0  0  0  0  0  0  0
   22.6858   33.2613   32.6700 C   0  0  1  0  0  0  0  0  0  0  0  0
   22.6223   33.7493   31.3172 O   0  0  0  0  0  0  0  0  0  0  0  0
   23.1302   30.1768   36.5257 C   0  0  2  0  0  0  0  0  0  0  0  0
   23.5781   31.5239   36.9807 N   0  0  0  0  0  0  0  0  0  0  0  0
   18.2373   26.2238   34.6800 C   0  0  1  0  0  0  0  0  0  0  0  0
   17.4543   25.5846   33.6034 N   0  0  0  0  0  0  0  0  0  0  0  0
   23.4414   34.2434   33.5955 C   0  0  2  0  0  0  0  0  0  0  0  0
   24.7599   34.4572   33.0821 O   0  0  0  0  0  0  0  0  0  0  0  0
   21.7442   30.3177   35.8268 C   0  0  2  0  0  0  0  0  0  0  0  0
   17.3353   27.1952   35.5052 C   0  0  1  0  0  0  0  0  0  0  0  0
   16.2704   26.4431   36.0777 O   0  0  0  0  0  0  0  0  0  0  0  0
   23.4778   33.6368   35.0641 C   0  0  2  0  0  0  0  0  0  0  0  0
   22.1060   33.4136   35.5725 O   0  0  0  0  0  0  0  0  0  0  0  0
   21.2682   28.9178   35.3522 C   0  0  2  0  0  0  0  0  0  0  0  0
   19.9865   29.0699   34.7457 O   0  0  0  0  0  0  0  0  0  0  0  0
   18.1960   27.8462   36.6352 C   0  0  0  0  0  0  0  0  0  0  0  0
   18.8261   26.8157   37.4948 O   0  0  0  0  0  0  0  0  0  0  0  0
   24.2172   34.5592   36.0755 C   0  0  2  0  0  0  0  0  0  0  0  0
   25.0649   33.7613   36.9091 O   0  0  0  0  0  0  0  0  0  0  0  0
   21.1209   27.9279   36.5341 C   0  0  1  0  0  0  0  0  0  0  0  0
   20.6997   26.6460   35.9919 O   0  0  0  0  0  0  0  0  0  0  0  0
   23.2570   35.3085   36.9729 C   0  0  0  0  0  0  0  0  0  0  0  0
   16.7197   28.2919   34.6349 C   0  0  0  0  0  0  0  0  0  0  0  0
   18.3233   25.5148   32.4031 C   0  0  0  0  0  0  0  0  0  0  0  0
  1  2  1  6  0  0  0
  1  6  1  0  0  0  0
  1 23  1  0  0  0  0
  3  4  1  1  0  0  0
  3  8  1  0  0  0  0
  3 30  1  0  0  0  0
  5  9  1  0  0  0  0
  5 27  1  0  0  0  0
  5 31  1  6  0  0  0
  6  7  1  6  0  0  0
  6 11  1  0  0  0  0
  8 13  1  0  0  0  0
  9 10  1  6  0  0  0
  9 15  1  0  0  0  0
 11 12  1  6  0  0  0
 11 17  1  0  0  0  0
 13 14  1  1  0  0  0
 13 19  1  0  0  0  0
 15 16  1  6  0  0  0
 15 20  1  0  0  0  0
 16 34  1  0  0  0  0
 17 18  1  6  0  0  0
 17 22  1  0  0  0  0
 19  2  1  6  0  0  0
 19 24  1  0  0  0  0
 20 21  1  1  0  0  0
 20 26  1  0  0  0  0
 20 33  1  0  0  0  0
 22 23  1  1  0  0  0
 22 28  1  0  0  0  0
 24 25  1  1  0  0  0
 24 30  1  0  0  0  0
 26 27  1  0  0  0  0
 28 29  1  1  0  0  0
 28 32  1  0  0  0  0
 30 31  1  6  0  0  0
M  END
>  <CHROM.1>
-158.73595501,-113.61417849,-98.51851271,-137.00623349,104.48615100,146.54920165
21.04910474,29.79642660,35.27680609,0.73331232,-0.76483437,-0.75282418

>  <Name>
ligand

>  <RI>
0

>  <Rbt.Current_Directory>
/home/itssahil/PROJECTS/Mol_Feturizer/New_Systems/rnas/4p3s

>  <Rbt.Executable>
rbdock ($Id: //depot/dev/client3/rdock/2013.1/src/exe/rbdock.cxx#4 $)

>  <Rbt.Library>
libRbt.so (2013.1, Build901 2013/11/27)

>  <Rbt.Parameter_File>
/export/apps/rDock/src/rDock_2013.1_src/data/scripts/dock_solv.prm

>  <Rbt.Receptor>
prm/blind_docking_80.prm

>  <SCORE>
6.64213

>  <SCORE.INTER>
-3.26093

>  <SCORE.INTER.CONST>
1

>  <SCORE.INTER.POLAR>
0

>  <SCORE.INTER.ROT>
6

>  <SCORE.INTER.SOLV>
19.9862

>  <SCORE.INTER.VDW>
-16.436

>  <SCORE.INTER.norm>
-0.0959098

>  <SCORE.INTRA>
8.94386

>  <SCORE.INTRA.DIHEDRAL>
8.7321

>  <SCORE.INTRA.DIHEDRAL.0>
15.8194

>  <SCORE.INTRA.POLAR>
0

>  <SCORE.INTRA.POLAR.0>
0

>  <SCORE.INTRA.REPUL>
0

>  <SCORE.INTRA.REPUL.0>
0

>  <SCORE.INTRA.SOLV>
3.86281

>  <SCORE.INTRA.SOLV.lig_0>
-71.9159

>  <SCORE.INTRA.VDW>
2.64641

>  <SCORE.INTRA.VDW.0>
-3.53918

>  <SCORE.INTRA.norm>
0.263055

>  <SCORE.RESTR>
0.959207

>  <SCORE.RESTR.CAVITY>
0.959207

>  <SCORE.RESTR.norm>
0.028212

>  <SCORE.SYSTEM>
0

>  <SCORE.SYSTEM.CONST>
0

>  <SCORE.SYSTEM.DIHEDRAL>
0

>  <SCORE.SYSTEM.SOLV>
0

>  <SCORE.SYSTEM.norm>
0

>  <SCORE.heavy>
34

>  <SCORE.norm>
0.195357

>  <RMSD>
8.307

$$$$
ligand
 OpenBabel01301917533D
libRbt.so/2013.1/901 2013/11/27
 34 36  0  0  0  0  0  0  0  0999 V2000
   20.9585   31.8423   40.1084 C   0  0  2  0  0  0  0  0  0  0  0  0
   21.3773   30.6812   39.3842 O   0  0  0  0  0  0  0  0  0  0  0  0
   19.5292   28.4841   36.1967 C   0  0  2  0  0  0  0  0  0  0  0  0
   18.6310   27.5923   35.4508 N   0  0  0  0  0  0  0  0  0  0  0  0
   17.0762   29.9052   34.8663 C   0  0  2  0  0  0  0  0  0  0  0  0
   22.1072   32.9159   40.0157 C   0  0  2  0  0  0  0  0  0  0  0  0
   22.3902   33.2620   38.6136 N   0  0  0  0  0  0  0  0  0  0  0  0
   20.1423   27.6603   37.3861 C   0  0  0  0  0  0  0  0  0  0  0  0
   16.8422   30.9096   33.6697 C   0  0  2  0  0  0  0  0  0  0  0  0
   18.0002   30.9842   32.8561 O   0  0  0  0  0  0  0  0  0  0  0  0
   23.3986   32.3834   40.7069 C   0  0  1  0  0  0  0  0  0  0  0  0
   24.4515   33.3616   40.6244 O   0  0  0  0  0  0  0  0  0  0  0  0
   21.1162   28.6081   38.1706 C   0  0  2  0  0  0  0  0  0  0  0  0
   21.7330   27.8910   39.3228 N   0  0  0  0  0  0  0  0  0  0  0  0
   16.5082   32.3253   34.2752 C   0  0  1  0  0  0  0  0  0  0  0  0
   16.3132   33.3231   33.2041 N   0  0  0  0  0  0  0  0  0  0  0  0
   23.0579   32.0349   42.1748 C   0  0  2  0  0  0  0  0  0  0  0  0
   24.2350   31.5547   42.8320 O   0  0  0  0  0  0  0  0  0  0  0  0
   20.3596   29.8614   38.7056 C   0  0  2  0  0  0  0  0  0  0  0  0
   15.2221   32.2121   35.1537 C   0  0  1  0  0  0  0  0  0  0  0  0
   14.1421   31.8056   34.3196 O   0  0  0  0  0  0  0  0  0  0  0  0
   21.8980   30.9484   42.1865 C   0  0  2  0  0  0  0  0  0  0  0  0
   20.6946   31.4599   41.4936 O   0  0  0  0  0  0  0  0  0  0  0  0
   19.7108   30.6131   37.5116 C   0  0  2  0  0  0  0  0  0  0  0  0
   19.0001   31.7354   38.0306 O   0  0  0  0  0  0  0  0  0  0  0  0
   15.4650   31.1455   36.2694 C   0  0  0  0  0  0  0  0  0  0  0  0
   15.8530   29.8373   35.6897 O   0  0  0  0  0  0  0  0  0  0  0  0
   21.4795   30.5338   43.6264 C   0  0  2  0  0  0  0  0  0  0  0  0
   21.1971   31.7100   44.3926 O   0  0  0  0  0  0  0  0  0  0  0  0
   18.7002   29.7209   36.7494 C   0  0  1  0  0  0  0  0  0  0  0  0
   18.1681   30.4970   35.6407 O   0  0  0  0  0  0  0  0  0  0  0  0
   22.5708   29.7666   44.3400 C   0  0  0  0  0  0  0  0  0  0  0  0
   14.8418   33.5469   35.7961 C   0  0  0  0  0  0  0  0  0  0  0  0
   17.5393   34.1561   33.1442 C   0  0  0  0  0  0  0  0  0  0  0  0
  1  2  1  6  0  0  0
  1  6  1  0  0  0  0
  1 23  1  0  0  0  0
  3  4  1  1  0  0  0
  3  8  1  0  0  0  0
  3 30  1  0  0  0  0
  5  9  1  0  0  0  0
  5 27  1  0  0  0  0
  5 31  1  1  0  0  0
  6  7  1  6  0  0  0
  6 11  1  0  0  0  0
  8 13  1  0  0  0  0
  9 10  1  1  0  0  0
  9 15  1  0  0  0  0
 11 12  1  1  0  0  0
 11 17  1  0  0  0  0
 13 14  1  1  0  0  0
 13 19  1  0  0  0  0
 15 16  1  6  0  0  0
 15 20  1  0  0  0  0
 16 34  1  0  0  0  0
 17 18  1  6  0  0  0
 17 22  1  0  0  0  0
 19  2  1  6  0  0  0
 19 24  1  0  0  0  0
 20 21  1  6  0  0  0
 20 26  1  0  0  0  0
 20 33  1  0  0  0  0
 22 23  1  1  0  0  0
 22 28  1  0  0  0  0
 24 25  1  1  0  0  0
 24 30  1  0  0  0  0
 26 27  1  0  0  0  0
 28 29  1  1  0  0  0
 28 32  1  0  0  0  0
 30 31  1  6  0  0  0
M  END
>  <CHROM.1>
-148.09226579,-173.42503606,-103.43008678,51.64877361,71.35580185,-174.14425663
19.54834633,31.06204397,38.04389503,0.09442683,-0.88804116,0.14689545

>  <Name>
ligand

>  <RI>
0

>  <Rbt.Current_Directory>
/home/itssahil/PROJECTS/Mol_Feturizer/New_Systems/rnas/4p3s

>  <Rbt.Executable>
rbdock ($Id: //depot/dev/client3/rdock/2013.1/src/exe/rbdock.cxx#4 $)

>  <Rbt.Library>
libRbt.so (2013.1, Build901 2013/11/27)

>  <Rbt.Parameter_File>
/export/apps/rDock/src/rDock_2013.1_src/data/scripts/dock_solv.prm

>  <Rbt.Receptor>
prm/pocket_docking_7.prm

>  <SCORE>
-8.7582

>  <SCORE.INTER>
-5.12608

>  <SCORE.INTER.CONST>
1

>  <SCORE.INTER.POLAR>
0

>  <SCORE.INTER.ROT>
6

>  <SCORE.INTER.SOLV>
9.12271

>  <SCORE.INTER.VDW>
-14.0583

>  <SCORE.INTER.norm>
-0.150767

>  <SCORE.INTRA>
-3.63212

>  <SCORE.INTRA.DIHEDRAL>
-9.53587

>  <SCORE.INTRA.DIHEDRAL.0>
15.8194

>  <SCORE.INTRA.POLAR>
0

>  <SCORE.INTRA.POLAR.0>
0

>  <SCORE.INTRA.REPUL>
0

>  <SCORE.INTRA.REPUL.0>
0

>  <SCORE.INTRA.SOLV>
0.164975

>  <SCORE.INTRA.SOLV.lig_0>
-71.9159

>  <SCORE.INTRA.VDW>
1.05333

>  <SCORE.INTRA.VDW.0>
-3.53918

>  <SCORE.INTRA.norm>
-0.106827

>  <SCORE.RESTR>
0

>  <SCORE.RESTR.CAVITY>
0

>  <SCORE.RESTR.norm>
0

>  <SCORE.SYSTEM>
0

>  <SCORE.SYSTEM.CONST>
0

>  <SCORE.SYSTEM.DIHEDRAL>
0

>  <SCORE.SYSTEM.SOLV>
0

>  <SCORE.SYSTEM.norm>
0

>  <SCORE.heavy>
34

>  <SCORE.norm>
-0.257594

>  <RMSD>
8.392

$$$$
ligand
 OpenBabel01301917533D
libRbt.so/2013.1/901 2013/11/27
 34 36  0  0  0  0  0  0  0  0999 V2000
   20.3563   36.0221   32.9513 C   0  0  2  0  0  0  0  0  0  0  0  0
   21.7208   35.5935   32.9012 O   0  0  0  0  0  0  0  0  0  0  0  0
   20.9579   31.4237   33.5596 C   0  0  2  0  0  0  0  0  0  0  0  0
   21.1214   29.9648   33.6179 N   0  0  0  0  0  0  0  0  0  0  0  0
   22.0165   30.3469   36.3430 C   0  0  2  0  0  0  0  0  0  0  0  0
   20.3160   37.5615   32.6207 C   0  0  2  0  0  0  0  0  0  0  0  0
   20.8873   37.8279   31.2908 N   0  0  0  0  0  0  0  0  0  0  0  0
   21.2680   31.8816   32.0887 C   0  0  0  0  0  0  0  0  0  0  0  0
   21.4680   30.2067   37.8178 C   0  0  2  0  0  0  0  0  0  0  0  0
   20.0562   30.3301   37.8316 O   0  0  0  0  0  0  0  0  0  0  0  0
   21.0912   38.3659   33.7074 C   0  0  1  0  0  0  0  0  0  0  0  0
   21.0570   39.7738   33.4090 O   0  0  0  0  0  0  0  0  0  0  0  0
   21.0744   33.4374   32.0228 C   0  0  2  0  0  0  0  0  0  0  0  0
   21.3592   33.9449   30.6503 N   0  0  0  0  0  0  0  0  0  0  0  0
   22.1238   31.3391   38.6952 C   0  0  1  0  0  0  0  0  0  0  0  0
   21.6227   31.2859   40.0833 N   0  0  0  0  0  0  0  0  0  0  0  0
   20.4584   38.0596   35.0851 C   0  0  2  0  0  0  0  0  0  0  0  0
   21.1489   38.7990   36.0973 O   0  0  0  0  0  0  0  0  0  0  0  0
   22.0199   34.1575   33.0311 C   0  0  2  0  0  0  0  0  0  0  0  0
   23.6756   31.1673   38.6703 C   0  0  1  0  0  0  0  0  0  0  0  0
   23.9974   29.9031   39.2410 O   0  0  0  0  0  0  0  0  0  0  0  0
   20.5388   36.4942   35.3480 C   0  0  2  0  0  0  0  0  0  0  0  0
   19.8284   35.7478   34.2857 O   0  0  0  0  0  0  0  0  0  0  0  0
   21.7321   33.6322   34.4638 C   0  0  2  0  0  0  0  0  0  0  0  0
   22.6300   34.2826   35.3607 O   0  0  0  0  0  0  0  0  0  0  0  0
   24.1661   31.2234   37.1878 C   0  0  0  0  0  0  0  0  0  0  0  0
   23.4855   30.2027   36.3554 O   0  0  0  0  0  0  0  0  0  0  0  0
   19.9200   36.0835   36.7150 C   0  0  2  0  0  0  0  0  0  0  0  0
   20.6121   36.7619   37.7690 O   0  0  0  0  0  0  0  0  0  0  0  0
   21.9691   32.1060   34.5765 C   0  0  1  0  0  0  0  0  0  0  0  0
   21.6506   31.7047   35.9375 O   0  0  0  0  0  0  0  0  0  0  0  0
   20.0319   34.5963   36.9691 C   0  0  0  0  0  0  0  0  0  0  0  0
   24.3896   32.2456   39.4865 C   0  0  0  0  0  0  0  0  0  0  0  0
   20.7601   32.4750   40.2903 C   0  0  0  0  0  0  0  0  0  0  0  0
  1  2  1  1  0  0  0
  1  6  1  0  0  0  0
  1 23  1  0  0  0  0
  3  4  1  6  0  0  0
  3  8  1  0  0  0  0
  3 30  1  0  0  0  0
  5  9  1  0  0  0  0
  5 27  1  0  0  0  0
  5 31  1  1  0  0  0
  6  7  1  6  0  0  0
  6 11  1  0  0  0  0
  8 13  1  0  0  0  0
  9 10  1  6  0  0  0
  9 15  1  0  0  0  0
 11 12  1  6  0  0  0
 11 17  1  0  0  0  0
 13 14  1  6  0  0  0
 13 19  1  0  0  0  0
 15 16  1  1  0  0  0
 15 20  1  0  0  0  0
 16 34  1  0  0  0  0
 17 18  1  1  0  0  0
 17 22  1  0  0  0  0
 19  2  1  1  0  0  0
 19 24  1  0  0  0  0
 20 21  1  1  0  0  0
 20 26  1  0  0  0  0
 20 33  1  0  0  0  0
 22 23  1  6  0  0  0
 22 28  1  0  0  0  0
 24 25  1  1  0  0  0
 24 30  1  0  0  0  0
 26 27  1  0  0  0  0
 28 29  1  1  0  0  0
 28 32  1  0  0  0  0
 30 31  1  1  0  0  0
M  END
>  <CHROM.1>
-173.46273784,49.48280146,-110.01053704,-59.10233716,74.77442570,-176.86417776
21.52241121,33.80764184,35.53083739,-2.88013371,-1.35590170,1.20053886

>  <Name>
ligand

>  <RI>
0

>  <Rbt.Current_Directory>
/home/itssahil/PROJECTS/Mol_Feturizer/New_Systems/rnas/4p3s

>  <Rbt.Executable>
rbdock ($Id: //depot/dev/client3/rdock/2013.1/src/exe/rbdock.cxx#4 $)

>  <Rbt.Library>
libRbt.so (2013.1, Build901 2013/11/27)

>  <Rbt.Parameter_File>
/export/apps/rDock/src/rDock_2013.1_src/data/scripts/dock_solv.prm

>  <Rbt.Receptor>
prm/pocket_docking_7.prm

>  <SCORE>
-7.8034

>  <SCORE.INTER>
-2.10364

>  <SCORE.INTER.CONST>
1

>  <SCORE.INTER.POLAR>
0

>  <SCORE.INTER.ROT>
6

>  <SCORE.INTER.SOLV>
11.9828

>  <SCORE.INTER.VDW>
-12.9967

>  <SCORE.INTER.norm>
-0.0618719

>  <SCORE.INTRA>
-5.69976

>  <SCORE.INTRA.DIHEDRAL>
-12.7837

>  <SCORE.INTRA.DIHEDRAL.0>
15.8194

>  <SCORE.INTRA.POLAR>
0

>  <SCORE.INTRA.POLAR.0>
0

>  <SCORE.INTRA.REPUL>
0

>  <SCORE.INTRA.REPUL.0>
0

>  <SCORE.INTRA.SOLV>
0.992141

>  <SCORE.INTRA.SOLV.lig_0>
-71.9159

>  <SCORE.INTRA.VDW>
0.196022

>  <SCORE.INTRA.VDW.0>
-3.53918

>  <SCORE.INTRA.norm>
-0.16764

>  <SCORE.RESTR>
0

>  <SCORE.RESTR.CAVITY>
0

>  <SCORE.RESTR.norm>
0

>  <SCORE.SYSTEM>
0

>  <SCORE.SYSTEM.CONST>
0

>  <SCORE.SYSTEM.DIHEDRAL>
0

>  <SCORE.SYSTEM.SOLV>
0

>  <SCORE.SYSTEM.norm>
0

>  <SCORE.heavy>
34

>  <SCORE.norm>
-0.229512

>  <RMSD>
8.406

$$$$
ligand
 OpenBabel01301917533D
libRbt.so/2013.1/901 2013/11/27
 34 36  0  0  0  0  0  0  0  0999 V2000
   21.5799   32.0878   38.4139 C   0  0  2  0  0  0  0  0  0  0  0  0
   22.3262   32.1833   37.1965 O   0  0  0  0  0  0  0  0  0  0  0  0
   19.2726   30.6401   34.6087 C   0  0  2  0  0  0  0  0  0  0  0  0
   18.5386   30.2224   33.4065 N   0  0  0  0  0  0  0  0  0  0  0  0
   19.3000   28.0633   36.1777 C   0  0  2  0  0  0  0  0  0  0  0  0
   22.0771   33.2267   39.3817 C   0  0  2  0  0  0  0  0  0  0  0  0
   21.8918   34.5527   38.7707 N   0  0  0  0  0  0  0  0  0  0  0  0
   19.7042   32.1379   34.4097 C   0  0  0  0  0  0  0  0  0  0  0  0
   19.3750   26.4968   36.3667 C   0  0  2  0  0  0  0  0  0  0  0  0
   20.7055   26.0982   36.6487 O   0  0  0  0  0  0  0  0  0  0  0  0
   23.5773   33.0087   39.7434 C   0  0  1  0  0  0  0  0  0  0  0  0
   24.0361   34.0477   40.6278 O   0  0  0  0  0  0  0  0  0  0  0  0
   20.4712   32.5889   35.7022 C   0  0  2  0  0  0  0  0  0  0  0  0
   20.9181   34.0059   35.5808 N   0  0  0  0  0  0  0  0  0  0  0  0
   18.8715   25.8172   35.0374 C   0  0  1  0  0  0  0  0  0  0  0  0
   18.9512   24.3459   35.1357 N   0  0  0  0  0  0  0  0  0  0  0  0
   23.7263   31.6084   40.3830 C   0  0  2  0  0  0  0  0  0  0  0  0
   25.0968   31.3927   40.7343 O   0  0  0  0  0  0  0  0  0  0  0  0
   21.7188   31.6881   35.9499 C   0  0  2  0  0  0  0  0  0  0  0  0
   17.4010   26.2650   34.7627 C   0  0  1  0  0  0  0  0  0  0  0  0
   16.5859   25.8184   35.8413 O   0  0  0  0  0  0  0  0  0  0  0  0
   23.2094   30.5167   39.3501 C   0  0  2  0  0  0  0  0  0  0  0  0
   21.7948   30.7633   38.9919 O   0  0  0  0  0  0  0  0  0  0  0  0
   21.2627   30.2089   36.0745 C   0  0  2  0  0  0  0  0  0  0  0  0
   22.4238   29.4041   36.2687 O   0  0  0  0  0  0  0  0  0  0  0  0
   17.3568   27.8242   34.6711 C   0  0  0  0  0  0  0  0  0  0  0  0
   17.9039   28.4524   35.8975 O   0  0  0  0  0  0  0  0  0  0  0  0
   23.3150   29.0677   39.9064 C   0  0  2  0  0  0  0  0  0  0  0  0
   24.6894   28.7606   40.1648 O   0  0  0  0  0  0  0  0  0  0  0  0
   20.5508   29.7153   34.7907 C   0  0  1  0  0  0  0  0  0  0  0  0
   20.1395   28.3379   35.0107 O   0  0  0  0  0  0  0  0  0  0  0  0
   22.7863   28.0407   38.9295 C   0  0  0  0  0  0  0  0  0  0  0  0
   16.8443   25.6608   33.4728 C   0  0  0  0  0  0  0  0  0  0  0  0
   19.5962   23.8519   33.8944 C   0  0  0  0  0  0  0  0  0  0  0  0
  1  2  1  6  0  0  0
  1  6  1  0  0  0  0
  1 23  1  0  0  0  0
  3  4  1  6  0  0  0
  3  8  1  0  0  0  0
  3 30  1  0  0  0  0
  5  9  1  0  0  0  0
  5 27  1  0  0  0  0
  5 31  1  6  0  0  0
  6  7  1  6  0  0  0
  6 11  1  0  0  0  0
  8 13  1  0  0  0  0
  9 10  1  6  0  0  0
  9 15  1  0  0  0  0
 11 12  1  1  0  0  0
 11 17  1  0  0  0  0
 13 14  1  6  0  0  0
 13 19  1  0  0  0  0
 15 16  1  1  0  0  0
 15 20  1  0  0  0  0
 16 34  1  0  0  0  0
 17 18  1  6  0  0  0
 17 22  1  0  0  0  0
 19  2  1  1  0  0  0
 19 24  1  0  0  0  0
 20 21  1  1  0  0  0
 20 26  1  0  0  0  0
 20 33  1  0  0  0  0
 22 23  1  1  0  0  0
 22 28  1  0  0  0  0
 24 25  1  6  0  0  0
 24 30  1  0  0  0  0
 26 27  1  0  0  0  0
 28 29  1  6  0  0  0
 28 32  1  0  0  0  0
 30 31  1  1  0  0  0
M  END
>  <CHROM.1>
-153.32005340,63.65799391,-132.64171047,-61.99154509,-59.91621216,-164.40453422
20.84744653,29.58021981,36.85645456,0.63521285,-0.81845670,-0.12294325

>  <Name>
ligand

>  <RI>
0

>  <Rbt.Current_Directory>
/home/itssahil/PROJECTS/Mol_Feturizer/New_Systems/rnas/4p3s

>  <Rbt.Executable>
rbdock ($Id: //depot/dev/client3/rdock/2013.1/src/exe/rbdock.cxx#4 $)

>  <Rbt.Library>
libRbt.so (2013.1, Build901 2013/11/27)

>  <Rbt.Parameter_File>
/export/apps/rDock/src/rDock_2013.1_src/data/scripts/dock_solv.prm

>  <Rbt.Receptor>
prm/pocket_docking_3.prm

>  <SCORE>
-6.89516

>  <SCORE.INTER>
-4.34207

>  <SCORE.INTER.CONST>
1

>  <SCORE.INTER.POLAR>
0

>  <SCORE.INTER.ROT>
6

>  <SCORE.INTER.SOLV>
13.5845

>  <SCORE.INTER.VDW>
-15.0229

>  <SCORE.INTER.norm>
-0.127708

>  <SCORE.INTRA>
-2.55309

>  <SCORE.INTRA.DIHEDRAL>
-10.4496

>  <SCORE.INTRA.DIHEDRAL.0>
15.8194

>  <SCORE.INTRA.POLAR>
0

>  <SCORE.INTRA.POLAR.0>
0

>  <SCORE.INTRA.REPUL>
0

>  <SCORE.INTRA.REPUL.0>
0

>  <SCORE.INTRA.SOLV>
3.05705

>  <SCORE.INTRA.SOLV.lig_0>
-71.9159

>  <SCORE.INTRA.VDW>
1.14317

>  <SCORE.INTRA.VDW.0>
-3.53918

>  <SCORE.INTRA.norm>
-0.0750908

>  <SCORE.RESTR>
0

>  <SCORE.RESTR.CAVITY>
0

>  <SCORE.RESTR.norm>
0

>  <SCORE.SYSTEM>
0

>  <SCORE.SYSTEM.CONST>
0

>  <SCORE.SYSTEM.DIHEDRAL>
0

>  <SCORE.SYSTEM.SOLV>
0

>  <SCORE.SYSTEM.norm>
0

>  <SCORE.heavy>
34

>  <SCORE.norm>
-0.202799

>  <RMSD>
8.424

$$$$
ligand
 OpenBabel01301917533D
libRbt.so/2013.1/901 2013/11/27
 34 36  0  0  0  0  0  0  0  0999 V2000
   18.3877   34.1393   33.4396 C   0  0  2  0  0  0  0  0  0  0  0  0
   17.1546   33.5282   33.0470 O   0  0  0  0  0  0  0  0  0  0  0  0
   16.2338   31.7783   36.8539 C   0  0  2  0  0  0  0  0  0  0  0  0
   15.5051   31.1495   37.9639 N   0  0  0  0  0  0  0  0  0  0  0  0
   16.5732   28.8109   37.1539 C   0  0  2  0  0  0  0  0  0  0  0  0
   18.8810   35.0493   32.2524 C   0  0  2  0  0  0  0  0  0  0  0  0
   17.8801   36.0787   31.9292 N   0  0  0  0  0  0  0  0  0  0  0  0
   15.4535   33.0796   36.4453 C   0  0  0  0  0  0  0  0  0  0  0  0
   17.5248   27.5519   37.2208 C   0  0  2  0  0  0  0  0  0  0  0  0
   18.8606   27.9570   37.4659 O   0  0  0  0  0  0  0  0  0  0  0  0
   19.1789   34.1785   30.9946 C   0  0  1  0  0  0  0  0  0  0  0  0
   19.6300   35.0064   29.9068 O   0  0  0  0  0  0  0  0  0  0  0  0
   16.2430   33.7606   35.2726 C   0  0  2  0  0  0  0  0  0  0  0  0
   15.5533   35.0050   34.8275 N   0  0  0  0  0  0  0  0  0  0  0  0
   17.4288   26.7903   35.8449 C   0  0  1  0  0  0  0  0  0  0  0  0
   18.3265   25.6178   35.8287 N   0  0  0  0  0  0  0  0  0  0  0  0
   20.2342   33.1144   31.3769 C   0  0  2  0  0  0  0  0  0  0  0  0
   20.5315   32.3106   30.2309 O   0  0  0  0  0  0  0  0  0  0  0  0
   16.3719   32.7950   34.0560 C   0  0  2  0  0  0  0  0  0  0  0  0
   15.9501   26.3463   35.6114 C   0  0  1  0  0  0  0  0  0  0  0  0
   15.5788   25.4521   36.6554 O   0  0  0  0  0  0  0  0  0  0  0  0
   19.6655   32.2372   32.5740 C   0  0  2  0  0  0  0  0  0  0  0  0
   19.3549   33.0876   33.7447 O   0  0  0  0  0  0  0  0  0  0  0  0
   17.0869   31.4939   34.5116 C   0  0  2  0  0  0  0  0  0  0  0  0
   17.1637   30.6168   33.3898 O   0  0  0  0  0  0  0  0  0  0  0  0
   15.0326   27.6107   35.6409 C   0  0  0  0  0  0  0  0  0  0  0  0
   15.1887   28.3609   36.9102 O   0  0  0  0  0  0  0  0  0  0  0  0
   20.6620   31.1353   33.0358 C   0  0  2  0  0  0  0  0  0  0  0  0
   20.9477   30.2660   31.9345 O   0  0  0  0  0  0  0  0  0  0  0  0
   16.3020   30.7668   35.6313 C   0  0  1  0  0  0  0  0  0  0  0  0
   17.0572   29.5827   36.0084 O   0  0  0  0  0  0  0  0  0  0  0  0
   20.1005   30.2915   34.1589 C   0  0  0  0  0  0  0  0  0  0  0  0
   15.7697   25.6143   34.2808 C   0  0  0  0  0  0  0  0  0  0  0  0
   19.4149   25.9047   34.8623 C   0  0  0  0  0  0  0  0  0  0  0  0
  1  2  1  6  0  0  0
  1  6  1  0  0  0  0
  1 23  1  0  0  0  0
  3  4  1  1  0  0  0
  3  8  1  0  0  0  0
  3 30  1  0  0  0  0
  5  9  1  0  0  0  0
  5 27  1  0  0  0  0
  5 31  1  6  0  0  0
  6  7  1  6  0  0  0
  6 11  1  0  0  0  0
  8 13  1  0  0  0  0
  9 10  1  6  0  0  0
  9 15  1  0  0  0  0
 11 12  1  6  0  0  0
 11 17  1  0  0  0  0
 13 14  1  6  0  0  0
 13 19  1  0  0  0  0
 15 16  1  1  0  0  0
 15 20  1  0  0  0  0
 16 34  1  0  0  0  0
 17 18  1  6  0  0  0
 17 22  1  0  0  0  0
 19  2  1  6  0  0  0
 19 24  1  0  0  0  0
 20 21  1  1  0  0  0
 20 26  1  0  0  0  0
 20 33  1  0  0  0  0
 22 23  1  1  0  0  0
 22 28  1  0  0  0  0
 24 25  1  6  0  0  0
 24 30  1  0  0  0  0
 26 27  1  0  0  0  0
 28 29  1  6  0  0  0
 28 32  1  0  0  0  0
 30 31  1  1  0  0  0
M  END
>  <CHROM.1>
-170.42288354,50.36880970,-111.30997013,-59.47331831,58.33230943,175.47361717
17.70742924,30.74173678,34.42110337,1.20341644,0.75045188,-0.29122660

>  <Name>
ligand

>  <RI>
0

>  <Rbt.Current_Directory>
/home/itssahil/PROJECTS/Mol_Feturizer/New_Systems/rnas/4p3s

>  <Rbt.Executable>
rbdock ($Id: //depot/dev/client3/rdock/2013.1/src/exe/rbdock.cxx#4 $)

>  <Rbt.Library>
libRbt.so (2013.1, Build901 2013/11/27)

>  <Rbt.Parameter_File>
/export/apps/rDock/src/rDock_2013.1_src/data/scripts/dock_solv.prm

>  <Rbt.Receptor>
prm/pocket_docking_7.prm

>  <SCORE>
-10.6346

>  <SCORE.INTER>
-5.91683

>  <SCORE.INTER.CONST>
1

>  <SCORE.INTER.POLAR>
0

>  <SCORE.INTER.ROT>
6

>  <SCORE.INTER.SOLV>
12.8573

>  <SCORE.INTER.VDW>
-15.8303

>  <SCORE.INTER.norm>
-0.174024

>  <SCORE.INTRA>
-4.71773

>  <SCORE.INTRA.DIHEDRAL>
-13.5565

>  <SCORE.INTRA.DIHEDRAL.0>
15.8194

>  <SCORE.INTRA.POLAR>
0

>  <SCORE.INTRA.POLAR.0>
0

>  <SCORE.INTRA.REPUL>
0

>  <SCORE.INTRA.REPUL.0>
0

>  <SCORE.INTRA.SOLV>
1.88532

>  <SCORE.INTRA.SOLV.lig_0>
-71.9159

>  <SCORE.INTRA.VDW>
1.11788

>  <SCORE.INTRA.VDW.0>
-3.53918

>  <SCORE.INTRA.norm>
-0.138757

>  <SCORE.RESTR>
0

>  <SCORE.RESTR.CAVITY>
0

>  <SCORE.RESTR.norm>
0

>  <SCORE.SYSTEM>
0

>  <SCORE.SYSTEM.CONST>
0

>  <SCORE.SYSTEM.DIHEDRAL>
0

>  <SCORE.SYSTEM.SOLV>
0

>  <SCORE.SYSTEM.norm>
0

>  <SCORE.heavy>
34

>  <SCORE.norm>
-0.312781

>  <RMSD>
8.436

$$$$
ligand
 OpenBabel01301917533D
libRbt.so/2013.1/901 2013/11/27
 34 36  0  0  0  0  0  0  0  0999 V2000
   21.7629   26.5413   40.0711 C   0  0  2  0  0  0  0  0  0  0  0  0
   20.8114   27.4935   40.5571 O   0  0  0  0  0  0  0  0  0  0  0  0
   17.8617   29.8443   38.5137 C   0  0  2  0  0  0  0  0  0  0  0  0
   17.2252   30.8851   37.6951 N   0  0  0  0  0  0  0  0  0  0  0  0
   17.7796   28.9005   35.3034 C   0  0  2  0  0  0  0  0  0  0  0  0
   22.1026   25.5481   41.2454 C   0  0  2  0  0  0  0  0  0  0  0  0
   20.8899   24.8627   41.7205 N   0  0  0  0  0  0  0  0  0  0  0  0
   18.7303   30.5617   39.6093 C   0  0  0  0  0  0  0  0  0  0  0  0
   16.7222   28.0030   34.5472 C   0  0  2  0  0  0  0  0  0  0  0  0
   15.4876   28.0050   35.2430 O   0  0  0  0  0  0  0  0  0  0  0  0
   22.7792   26.3158   42.4209 C   0  0  1  0  0  0  0  0  0  0  0  0
   23.0913   25.4116   43.4967 O   0  0  0  0  0  0  0  0  0  0  0  0
   19.3942   29.4496   40.4951 C   0  0  2  0  0  0  0  0  0  0  0  0
   20.2425   30.0607   41.5577 N   0  0  0  0  0  0  0  0  0  0  0  0
   17.2961   26.5385   34.4574 C   0  0  1  0  0  0  0  0  0  0  0  0
   16.3354   25.6368   33.7903 N   0  0  0  0  0  0  0  0  0  0  0  0
   24.0469   27.0172   41.8798 C   0  0  2  0  0  0  0  0  0  0  0  0
   24.6910   27.7191   42.9477 O   0  0  0  0  0  0  0  0  0  0  0  0
   20.2790   28.5040   39.6277 C   0  0  2  0  0  0  0  0  0  0  0  0
   18.6470   26.5687   33.6749 C   0  0  1  0  0  0  0  0  0  0  0  0
   18.3924   27.0412   32.3561 O   0  0  0  0  0  0  0  0  0  0  0  0
   23.6250   28.0011   40.7050 C   0  0  2  0  0  0  0  0  0  0  0  0
   22.9519   27.2582   39.6163 O   0  0  0  0  0  0  0  0  0  0  0  0
   19.4036   27.8652   38.5155 C   0  0  2  0  0  0  0  0  0  0  0  0
   20.2421   27.0310   37.7187 O   0  0  0  0  0  0  0  0  0  0  0  0
   19.6329   27.5352   34.4066 C   0  0  0  0  0  0  0  0  0  0  0  0
   19.0504   28.8907   34.5526 O   0  0  0  0  0  0  0  0  0  0  0  0
   24.8388   28.7545   40.0890 C   0  0  2  0  0  0  0  0  0  0  0  0
   25.5671   29.4093   41.1336 O   0  0  0  0  0  0  0  0  0  0  0  0
   18.7783   28.9361   37.5878 C   0  0  1  0  0  0  0  0  0  0  0  0
   17.9605   28.2487   36.6013 O   0  0  0  0  0  0  0  0  0  0  0  0
   24.4108   29.8082   39.0915 C   0  0  0  0  0  0  0  0  0  0  0  0
   19.2804   25.1813   33.5617 C   0  0  0  0  0  0  0  0  0  0  0  0
   15.4336   25.0957   34.8366 C   0  0  0  0  0  0  0  0  0  0  0  0
  1  2  1  1  0  0  0
  1  6  1  0  0  0  0
  1 23  1  0  0  0  0
  3  4  1  6  0  0  0
  3  8  1  0  0  0  0
  3 30  1  0  0  0  0
  5  9  1  0  0  0  0
  5 27  1  0  0  0  0
  5 31  1  1  0  0  0
  6  7  1  1  0  0  0
  6 11  1  0  0  0  0
  8 13  1  0  0  0  0
  9 10  1  1  0  0  0
  9 15  1  0  0  0  0
 11 12  1  1  0  0  0
 11 17  1  0  0  0  0
 13 14  1  1  0  0  0
 13 19  1  0  0  0  0
 15 16  1  6  0  0  0
 15 20  1  0  0  0  0
 16 34  1  0  0  0  0
 17 18  1  1  0  0  0
 17 22  1  0  0  0  0
 19  2  1  1  0  0  0
 19 24  1  0  0  0  0
 20 21  1  6  0  0  0
 20 26  1  0  0  0  0
 20 33  1  0  0  0  0
 22 23  1  6  0  0  0
 22 28  1  0  0  0  0
 24 25  1  6  0  0  0
 24 30  1  0  0  0  0
 26 27  1  0  0  0  0
 28 29  1  1  0  0  0
 28 32  1  0  0  0  0
 30 31  1  6  0  0  0
M  END
>  <CHROM.1>
-177.21684900,-174.66763962,-88.11894105,-53.51228607,92.32217357,-173.36014799
20.19042726,27.72394754,38.21478149,-0.53734596,0.71770316,-2.45215223

>  <Name>
ligand

>  <RI>
0

>  <Rbt.Current_Directory>
/home/itssahil/PROJECTS/Mol_Feturizer/New_Systems/rnas/4p3s

>  <Rbt.Executable>
rbdock ($Id: //depot/dev/client3/rdock/2013.1/src/exe/rbdock.cxx#4 $)

>  <Rbt.Library>
libRbt.so (2013.1, Build901 2013/11/27)

>  <Rbt.Parameter_File>
/export/apps/rDock/src/rDock_2013.1_src/data/scripts/dock_solv.prm

>  <Rbt.Receptor>
prm/pocket_docking_6.prm

>  <SCORE>
-9.05161

>  <SCORE.INTER>
-3.72656

>  <SCORE.INTER.CONST>
1

>  <SCORE.INTER.POLAR>
0

>  <SCORE.INTER.ROT>
6

>  <SCORE.INTER.SOLV>
12.642

>  <SCORE.INTER.VDW>
-14.2984

>  <SCORE.INTER.norm>
-0.109605

>  <SCORE.INTRA>
-5.32505

>  <SCORE.INTRA.DIHEDRAL>
-10.6447

>  <SCORE.INTRA.DIHEDRAL.0>
15.8194

>  <SCORE.INTRA.POLAR>
0

>  <SCORE.INTRA.POLAR.0>
0

>  <SCORE.INTRA.REPUL>
0

>  <SCORE.INTRA.REPUL.0>
0

>  <SCORE.INTRA.SOLV>
-1.059

>  <SCORE.INTRA.SOLV.lig_0>
-71.9159

>  <SCORE.INTRA.VDW>
0.526808

>  <SCORE.INTRA.VDW.0>
-3.53918

>  <SCORE.INTRA.norm>
-0.156619

>  <SCORE.RESTR>
0

>  <SCORE.RESTR.CAVITY>
0

>  <SCORE.RESTR.norm>
0

>  <SCORE.SYSTEM>
0

>  <SCORE.SYSTEM.CONST>
0

>  <SCORE.SYSTEM.DIHEDRAL>
0

>  <SCORE.SYSTEM.SOLV>
0

>  <SCORE.SYSTEM.norm>
0

>  <SCORE.heavy>
34

>  <SCORE.norm>
-0.266224

>  <RMSD>
8.438

$$$$
ligand
 OpenBabel01301917533D
libRbt.so/2013.1/901 2013/11/27
 34 36  0  0  0  0  0  0  0  0999 V2000
   21.1871   34.0847   29.8753 C   0  0  2  0  0  0  0  0  0  0  0  0
   22.4631   33.5395   30.2257 O   0  0  0  0  0  0  0  0  0  0  0  0
   21.2823   31.8515   33.9885 C   0  0  2  0  0  0  0  0  0  0  0  0
   21.2524   31.0220   35.2007 N   0  0  0  0  0  0  0  0  0  0  0  0
   23.7180   34.1071   35.8043 C   0  0  2  0  0  0  0  0  0  0  0  0
   21.2731   34.6154   28.3948 C   0  0  2  0  0  0  0  0  0  0  0  0
   21.6377   33.5311   27.4689 N   0  0  0  0  0  0  0  0  0  0  0  0
   21.3523   30.8869   32.7500 C   0  0  0  0  0  0  0  0  0  0  0  0
   24.0274   32.9477   36.8316 C   0  0  2  0  0  0  0  0  0  0  0  0
   24.2314   31.7242   36.1461 O   0  0  0  0  0  0  0  0  0  0  0  0
   22.3109   35.7740   28.2977 C   0  0  1  0  0  0  0  0  0  0  0  0
   22.3928   36.2620   26.9459 O   0  0  0  0  0  0  0  0  0  0  0  0
   21.3646   31.7732   31.4553 C   0  0  2  0  0  0  0  0  0  0  0  0
   21.4366   30.9201   30.2348 N   0  0  0  0  0  0  0  0  0  0  0  0
   22.8036   32.8246   37.8162 C   0  0  1  0  0  0  0  0  0  0  0  0
   23.0148   31.7291   38.7838 N   0  0  0  0  0  0  0  0  0  0  0  0
   21.8895   36.8900   29.2822 C   0  0  2  0  0  0  0  0  0  0  0  0
   22.8241   37.9706   29.1998 O   0  0  0  0  0  0  0  0  0  0  0  0
   22.5822   32.7463   31.4605 C   0  0  2  0  0  0  0  0  0  0  0  0
   22.6143   34.1821   38.5644 C   0  0  1  0  0  0  0  0  0  0  0  0
   23.7887   34.4436   39.3259 O   0  0  0  0  0  0  0  0  0  0  0  0
   21.8281   36.2815   30.7492 C   0  0  2  0  0  0  0  0  0  0  0  0
   20.8648   35.1598   30.8107 O   0  0  0  0  0  0  0  0  0  0  0  0
   22.5170   33.6371   32.7308 C   0  0  2  0  0  0  0  0  0  0  0  0
   23.6566   34.4946   32.7273 O   0  0  0  0  0  0  0  0  0  0  0  0
   22.3997   35.3145   37.5094 C   0  0  0  0  0  0  0  0  0  0  0  0
   23.5220   35.3704   36.5423 O   0  0  0  0  0  0  0  0  0  0  0  0
   21.4064   37.3317   31.8166 C   0  0  2  0  0  0  0  0  0  0  0  0
   21.3825   36.7102   33.1063 O   0  0  0  0  0  0  0  0  0  0  0  0
   22.5601   32.7938   34.0290 C   0  0  1  0  0  0  0  0  0  0  0  0
   22.4678   33.7069   35.1570 O   0  0  0  0  0  0  0  0  0  0  0  0
   20.0289   37.8970   31.5489 C   0  0  0  0  0  0  0  0  0  0  0  0
   21.4278   34.1498   39.5288 C   0  0  0  0  0  0  0  0  0  0  0  0
   24.3820   31.8836   39.3386 C   0  0  0  0  0  0  0  0  0  0  0  0
  1  2  1  1  0  0  0
  1  6  1  0  0  0  0
  1 23  1  0  0  0  0
  3  4  1  1  0  0  0
  3  8  1  0  0  0  0
  3 30  1  0  0  0  0
  5  9  1  0  0  0  0
  5 27  1  0  0  0  0
  5 31  1  1  0  0  0
  6  7  1  6  0  0  0
  6 11  1  0  0  0  0
  8 13  1  0  0  0  0
  9 10  1  6  0  0  0
  9 15  1  0  0  0  0
 11 12  1  6  0  0  0
 11 17  1  0  0  0  0
 13 14  1  6  0  0  0
 13 19  1  0  0  0  0
 15 16  1  1  0  0  0
 15 20  1  0  0  0  0
 16 34  1  0  0  0  0
 17 18  1  1  0  0  0
 17 22  1  0  0  0  0
 19  2  1  6  0  0  0
 19 24  1  0  0  0  0
 20 21  1  1  0  0  0
 20 26  1  0  0  0  0
 20 33  1  0  0  0  0
 22 23  1  6  0  0  0
 22 28  1  0  0  0  0
 24 25  1  1  0  0  0
 24 30  1  0  0  0  0
 26 27  1  0  0  0  0
 28 29  1  1  0  0  0
 28 32  1  0  0  0  0
 30 31  1  1  0  0  0
M  END
>  <CHROM.1>
-168.43041636,45.60588263,47.95489331,-179.66364898,147.49174244,-84.25535233
22.30934750,34.11263400,33.35904850,2.97999297,-1.42319393,0.08514778

>  <Name>
ligand

>  <RI>
0

>  <Rbt.Current_Directory>
/home/itssahil/PROJECTS/Mol_Feturizer/New_Systems/rnas/4p3s

>  <Rbt.Executable>
rbdock ($Id: //depot/dev/client3/rdock/2013.1/src/exe/rbdock.cxx#4 $)

>  <Rbt.Library>
libRbt.so (2013.1, Build901 2013/11/27)

>  <Rbt.Parameter_File>
/export/apps/rDock/src/rDock_2013.1_src/data/scripts/dock_solv.prm

>  <Rbt.Receptor>
prm/blind_docking_100.prm

>  <SCORE>
-1.09768

>  <SCORE.INTER>
-8.29188

>  <SCORE.INTER.CONST>
1

>  <SCORE.INTER.POLAR>
0

>  <SCORE.INTER.ROT>
6

>  <SCORE.INTER.SOLV>
14.8137

>  <SCORE.INTER.VDW>
-18.0658

>  <SCORE.INTER.norm>
-0.243879

>  <SCORE.INTRA>
4.85047

>  <SCORE.INTRA.DIHEDRAL>
-7.4613

>  <SCORE.INTRA.DIHEDRAL.0>
15.8194

>  <SCORE.INTRA.POLAR>
0

>  <SCORE.INTRA.POLAR.0>
0

>  <SCORE.INTRA.REPUL>
0

>  <SCORE.INTRA.REPUL.0>
0

>  <SCORE.INTRA.SOLV>
2.6244

>  <SCORE.INTRA.SOLV.lig_0>
-71.9159

>  <SCORE.INTRA.VDW>
7.26892

>  <SCORE.INTRA.VDW.0>
-3.53918

>  <SCORE.INTRA.norm>
0.142661

>  <SCORE.RESTR>
2.34373

>  <SCORE.RESTR.CAVITY>
2.34373

>  <SCORE.RESTR.norm>
0.0689332

>  <SCORE.SYSTEM>
0

>  <SCORE.SYSTEM.CONST>
0

>  <SCORE.SYSTEM.DIHEDRAL>
0

>  <SCORE.SYSTEM.SOLV>
0

>  <SCORE.SYSTEM.norm>
0

>  <SCORE.heavy>
34

>  <SCORE.norm>
-0.0322846

>  <RMSD>
8.454

$$$$
ligand
 OpenBabel01301917533D
libRbt.so/2013.1/901 2013/11/27
 34 36  0  0  0  0  0  0  0  0999 V2000
   20.9338   35.1688   29.6399 C   0  0  2  0  0  0  0  0  0  0  0  0
   21.6291   35.1089   30.8894 O   0  0  0  0  0  0  0  0  0  0  0  0
   21.1466   31.5562   33.2448 C   0  0  2  0  0  0  0  0  0  0  0  0
   21.3339   30.2058   33.7924 N   0  0  0  0  0  0  0  0  0  0  0  0
   23.7239   33.2824   35.5440 C   0  0  2  0  0  0  0  0  0  0  0  0
   21.2786   36.5447   28.9552 C   0  0  2  0  0  0  0  0  0  0  0  0
   22.7287   36.6753   28.7404 N   0  0  0  0  0  0  0  0  0  0  0  0
   20.9823   31.4228   31.6878 C   0  0  0  0  0  0  0  0  0  0  0  0
   24.1005   32.5097   36.8693 C   0  0  2  0  0  0  0  0  0  0  0  0
   24.4374   31.1647   36.5761 O   0  0  0  0  0  0  0  0  0  0  0  0
   20.7581   37.7259   29.8285 C   0  0  1  0  0  0  0  0  0  0  0  0
   21.0713   38.9857   29.2063 O   0  0  0  0  0  0  0  0  0  0  0  0
   20.7630   32.8636   31.1062 C   0  0  2  0  0  0  0  0  0  0  0  0
   20.6046   32.8141   29.6247 N   0  0  0  0  0  0  0  0  0  0  0  0
   22.8592   32.5630   37.8382 C   0  0  1  0  0  0  0  0  0  0  0  0
   23.1343   31.8242   39.0869 N   0  0  0  0  0  0  0  0  0  0  0  0
   19.2342   37.5513   30.0269 C   0  0  2  0  0  0  0  0  0  0  0  0
   18.7333   38.6341   30.8173 O   0  0  0  0  0  0  0  0  0  0  0  0
   21.9672   33.7908   31.4521 C   0  0  2  0  0  0  0  0  0  0  0  0
   22.5227   34.0551   38.1520 C   0  0  1  0  0  0  0  0  0  0  0  0
   23.6417   34.6397   38.8106 O   0  0  0  0  0  0  0  0  0  0  0  0
   18.9666   36.1476   30.7226 C   0  0  2  0  0  0  0  0  0  0  0  0
   19.5008   35.0430   29.8953 O   0  0  0  0  0  0  0  0  0  0  0  0
   22.1416   33.8457   32.9942 C   0  0  2  0  0  0  0  0  0  0  0  0
   23.2667   34.6735   33.2817 O   0  0  0  0  0  0  0  0  0  0  0  0
   22.2439   34.8031   36.8088 C   0  0  0  0  0  0  0  0  0  0  0  0
   23.3896   34.6813   35.8757 O   0  0  0  0  0  0  0  0  0  0  0  0
   17.4535   35.8760   30.9619 C   0  0  2  0  0  0  0  0  0  0  0  0
   16.7198   36.2219   29.7820 O   0  0  0  0  0  0  0  0  0  0  0  0
   22.4163   32.4443   33.5933 C   0  0  1  0  0  0  0  0  0  0  0  0
   22.5381   32.5919   35.0349 O   0  0  0  0  0  0  0  0  0  0  0  0
   16.9005   36.6938   32.1081 C   0  0  0  0  0  0  0  0  0  0  0  0
   21.3111   34.1925   39.0751 C   0  0  0  0  0  0  0  0  0  0  0  0
   24.4777   32.2377   39.5612 C   0  0  0  0  0  0  0  0  0  0  0  0
  1  2  1  1  0  0  0
  1  6  1  0  0  0  0
  1 23  1  0  0  0  0
  3  4  1  1  0  0  0
  3  8  1  0  0  0  0
  3 30  1  0  0  0  0
  5  9  1  0  0  0  0
  5 27  1  0  0  0  0
  5 31  1  1  0  0  0
  6  7  1  1  0  0  0
  6 11  1  0  0  0  0
  8 13  1  0  0  0  0
  9 10  1  6  0  0  0
  9 15  1  0  0  0  0
 11 12  1  6  0  0  0
 11 17  1  0  0  0  0
 13 14  1  6  0  0  0
 13 19  1  0  0  0  0
 15 16  1  1  0  0  0
 15 20  1  0  0  0  0
 16 34  1  0  0  0  0
 17 18  1  1  0  0  0
 17 22  1  0  0  0  0
 19  2  1  1  0  0  0
 19 24  1  0  0  0  0
 20 21  1  1  0  0  0
 20 26  1  0  0  0  0
 20 33  1  0  0  0  0
 22 23  1  6  0  0  0
 22 28  1  0  0  0  0
 24 25  1  6  0  0  0
 24 30  1  0  0  0  0
 26 27  1  0  0  0  0
 28 29  1  6  0  0  0
 28 32  1  0  0  0  0
 30 31  1  1  0  0  0
M  END
>  <CHROM.1>
-153.97020891,-36.86728179,46.45339082,45.11888455,174.64786543,-142.92412709
21.43775805,34.40179286,33.30101590,-2.63441493,-1.10083235,1.00750968

>  <Name>
ligand

>  <RI>
0

>  <Rbt.Current_Directory>
/home/itssahil/PROJECTS/Mol_Feturizer/New_Systems/rnas/4p3s

>  <Rbt.Executable>
rbdock ($Id: //depot/dev/client3/rdock/2013.1/src/exe/rbdock.cxx#4 $)

>  <Rbt.Library>
libRbt.so (2013.1, Build901 2013/11/27)

>  <Rbt.Parameter_File>
/export/apps/rDock/src/rDock_2013.1_src/data/scripts/dock_solv.prm

>  <Rbt.Receptor>
prm/blind_docking_60.prm

>  <SCORE>
16.084

>  <SCORE.INTER>
-2.59911

>  <SCORE.INTER.CONST>
1

>  <SCORE.INTER.POLAR>
0

>  <SCORE.INTER.ROT>
6

>  <SCORE.INTER.SOLV>
13.4645

>  <SCORE.INTER.VDW>
-13.8209

>  <SCORE.INTER.norm>
-0.0764443

>  <SCORE.INTRA>
13.3246

>  <SCORE.INTRA.DIHEDRAL>
-4.61347

>  <SCORE.INTRA.DIHEDRAL.0>
15.8194

>  <SCORE.INTRA.POLAR>
0

>  <SCORE.INTRA.POLAR.0>
0

>  <SCORE.INTRA.REPUL>
0

>  <SCORE.INTRA.REPUL.0>
0

>  <SCORE.INTRA.SOLV>
1.18234

>  <SCORE.INTRA.SOLV.lig_0>
-71.9159

>  <SCORE.INTRA.VDW>
15.0402

>  <SCORE.INTRA.VDW.0>
-3.53918

>  <SCORE.INTRA.norm>
0.391901

>  <SCORE.RESTR>
5.35844

>  <SCORE.RESTR.CAVITY>
5.35844

>  <SCORE.RESTR.norm>
0.157601

>  <SCORE.SYSTEM>
0

>  <SCORE.SYSTEM.CONST>
0

>  <SCORE.SYSTEM.DIHEDRAL>
0

>  <SCORE.SYSTEM.SOLV>
0

>  <SCORE.SYSTEM.norm>
0

>  <SCORE.heavy>
34

>  <SCORE.norm>
0.473058

>  <RMSD>
8.456

$$$$
ligand
 OpenBabel01301917533D
libRbt.so/2013.1/901 2013/11/27
 34 36  0  0  0  0  0  0  0  0999 V2000
   21.2127   34.0804   29.9095 C   0  0  2  0  0  0  0  0  0  0  0  0
   22.5146   33.8036   30.4354 O   0  0  0  0  0  0  0  0  0  0  0  0
   21.2824   31.7891   34.0167 C   0  0  2  0  0  0  0  0  0  0  0  0
   21.2559   30.8810   35.1713 N   0  0  0  0  0  0  0  0  0  0  0  0
   23.4230   34.3590   35.9023 C   0  0  2  0  0  0  0  0  0  0  0  0
   21.3754   34.5020   28.4007 C   0  0  2  0  0  0  0  0  0  0  0  0
   22.0241   33.4333   27.6242 N   0  0  0  0  0  0  0  0  0  0  0  0
   21.4847   30.9163   32.7258 C   0  0  0  0  0  0  0  0  0  0  0  0
   24.1126   33.3271   36.8795 C   0  0  2  0  0  0  0  0  0  0  0  0
   24.5651   32.1936   36.1590 O   0  0  0  0  0  0  0  0  0  0  0  0
   22.2034   35.8182   28.2959 C   0  0  1  0  0  0  0  0  0  0  0  0
   22.3547   36.2071   26.9181 O   0  0  0  0  0  0  0  0  0  0  0  0
   21.4934   31.8853   31.4916 C   0  0  2  0  0  0  0  0  0  0  0  0
   21.6885   31.1224   30.2257 N   0  0  0  0  0  0  0  0  0  0  0  0
   23.0552   32.8974   37.9656 C   0  0  1  0  0  0  0  0  0  0  0  0
   23.6284   31.9012   38.8929 N   0  0  0  0  0  0  0  0  0  0  0  0
   21.4870   36.9122   29.1218 C   0  0  2  0  0  0  0  0  0  0  0  0
   22.2258   38.1343   29.0288 O   0  0  0  0  0  0  0  0  0  0  0  0
   22.6327   32.9408   31.6228 C   0  0  2  0  0  0  0  0  0  0  0  0
   22.5877   34.1643   38.7495 C   0  0  1  0  0  0  0  0  0  0  0  0
   23.7171   34.7273   39.4090 O   0  0  0  0  0  0  0  0  0  0  0  0
   21.3633   36.4176   30.6271 C   0  0  2  0  0  0  0  0  0  0  0  0
   20.6058   35.1484   30.7006 O   0  0  0  0  0  0  0  0  0  0  0  0
   22.4392   33.7383   32.9411 C   0  0  2  0  0  0  0  0  0  0  0  0
   23.5099   34.6737   33.0520 O   0  0  0  0  0  0  0  0  0  0  0  0
   21.9938   35.1946   37.7359 C   0  0  0  0  0  0  0  0  0  0  0  0
   22.9726   35.5332   36.6751 O   0  0  0  0  0  0  0  0  0  0  0  0
   20.6483   37.4535   31.5415 C   0  0  2  0  0  0  0  0  0  0  0  0
   20.5302   36.9143   32.8627 O   0  0  0  0  0  0  0  0  0  0  0  0
   22.4823   32.8160   34.1843 C   0  0  1  0  0  0  0  0  0  0  0  0
   22.2670   33.6432   35.3608 O   0  0  0  0  0  0  0  0  0  0  0  0
   19.2564   37.7848   31.0499 C   0  0  0  0  0  0  0  0  0  0  0  0
   21.5408   33.8319   39.8136 C   0  0  0  0  0  0  0  0  0  0  0  0
   23.6460   30.5961   38.1879 C   0  0  0  0  0  0  0  0  0  0  0  0
  1  2  1  1  0  0  0
  1  6  1  0  0  0  0
  1 23  1  0  0  0  0
  3  4  1  1  0  0  0
  3  8  1  0  0  0  0
  3 30  1  0  0  0  0
  5  9  1  0  0  0  0
  5 27  1  0  0  0  0
  5 31  1  1  0  0  0
  6  7  1  6  0  0  0
  6 11  1  0  0  0  0
  8 13  1  0  0  0  0
  9 10  1  6  0  0  0
  9 15  1  0  0  0  0
 11 12  1  6  0  0  0
 11 17  1  0  0  0  0
 13 14  1  6  0  0  0
 13 19  1  0  0  0  0
 15 16  1  1  0  0  0
 15 20  1  0  0  0  0
 16 34  1  0  0  0  0
 17 18  1  1  0  0  0
 17 22  1  0  0  0  0
 19  2  1  6  0  0  0
 19 24  1  0  0  0  0
 20 21  1  1  0  0  0
 20 26  1  0  0  0  0
 20 33  1  0  0  0  0
 22 23  1  6  0  0  0
 22 28  1  0  0  0  0
 24 25  1  1  0  0  0
 24 30  1  0  0  0  0
 26 27  1  0  0  0  0
 28 29  1  1  0  0  0
 28 32  1  0  0  0  0
 30 31  1  1  0  0  0
M  END
>  <CHROM.1>
-157.88826059,34.44830706,-76.88071498,177.76409222,162.30529018,-86.46784093
22.17512545,34.14734830,33.35725373,-2.52416534,-1.37208148,0.89959838

>  <Name>
ligand

>  <RI>
0

>  <Rbt.Current_Directory>
/home/itssahil/PROJECTS/Mol_Feturizer/New_Systems/rnas/4p3s

>  <Rbt.Executable>
rbdock ($Id: //depot/dev/client3/rdock/2013.1/src/exe/rbdock.cxx#4 $)

>  <Rbt.Library>
libRbt.so (2013.1, Build901 2013/11/27)

>  <Rbt.Parameter_File>
/export/apps/rDock/src/rDock_2013.1_src/data/scripts/dock_solv.prm

>  <Rbt.Receptor>
prm/blind_docking_100.prm

>  <SCORE>
0.0681368

>  <SCORE.INTER>
-3.65927

>  <SCORE.INTER.CONST>
1

>  <SCORE.INTER.POLAR>
0

>  <SCORE.INTER.ROT>
6

>  <SCORE.INTER.SOLV>
13.7881

>  <SCORE.INTER.VDW>
-14.6355

>  <SCORE.INTER.norm>
-0.107625

>  <SCORE.INTRA>
1.67622

>  <SCORE.INTRA.DIHEDRAL>
-6.22109

>  <SCORE.INTRA.DIHEDRAL.0>
15.8194

>  <SCORE.INTRA.POLAR>
0

>  <SCORE.INTRA.POLAR.0>
0

>  <SCORE.INTRA.REPUL>
0

>  <SCORE.INTRA.REPUL.0>
0

>  <SCORE.INTRA.SOLV>
2.33781

>  <SCORE.INTRA.SOLV.lig_0>
-71.9159

>  <SCORE.INTRA.VDW>
3.61785

>  <SCORE.INTRA.VDW.0>
-3.53918

>  <SCORE.INTRA.norm>
0.0493004

>  <SCORE.RESTR>
2.05119

>  <SCORE.RESTR.CAVITY>
2.05119

>  <SCORE.RESTR.norm>
0.060329

>  <SCORE.SYSTEM>
0

>  <SCORE.SYSTEM.CONST>
0

>  <SCORE.SYSTEM.DIHEDRAL>
0

>  <SCORE.SYSTEM.SOLV>
0

>  <SCORE.SYSTEM.norm>
0

>  <SCORE.heavy>
34

>  <SCORE.norm>
0.00200402

>  <RMSD>
8.468

$$$$
ligand
 OpenBabel01301917533D
libRbt.so/2013.1/901 2013/11/27
 34 36  0  0  0  0  0  0  0  0999 V2000
   21.9720   33.7523   37.4816 C   0  0  2  0  0  0  0  0  0  0  0  0
   22.8243   32.7125   36.9910 O   0  0  0  0  0  0  0  0  0  0  0  0
   20.2992   31.4663   33.7548 C   0  0  2  0  0  0  0  0  0  0  0  0
   19.7918   30.7652   32.5675 N   0  0  0  0  0  0  0  0  0  0  0  0
   19.0108   28.4557   35.4666 C   0  0  2  0  0  0  0  0  0  0  0  0
   22.8610   34.7721   38.2881 C   0  0  2  0  0  0  0  0  0  0  0  0
   23.9177   35.3373   37.4337 N   0  0  0  0  0  0  0  0  0  0  0  0
   21.7014   32.0740   33.3890 C   0  0  0  0  0  0  0  0  0  0  0  0
   17.4680   28.1604   35.2987 C   0  0  2  0  0  0  0  0  0  0  0  0
   17.0363   28.5224   33.9983 O   0  0  0  0  0  0  0  0  0  0  0  0
   23.4930   34.0714   39.5286 C   0  0  1  0  0  0  0  0  0  0  0  0
   24.3067   35.0001   40.2687 O   0  0  0  0  0  0  0  0  0  0  0  0
   22.2336   32.8390   34.6515 C   0  0  2  0  0  0  0  0  0  0  0  0
   23.5703   33.4394   34.3775 N   0  0  0  0  0  0  0  0  0  0  0  0
   16.6877   28.9933   36.3848 C   0  0  1  0  0  0  0  0  0  0  0  0
   15.2306   28.7891   36.2578 N   0  0  0  0  0  0  0  0  0  0  0  0
   22.3509   33.4955   40.3980 C   0  0  2  0  0  0  0  0  0  0  0  0
   22.9099   32.8574   41.5505 O   0  0  0  0  0  0  0  0  0  0  0  0
   22.3552   31.8777   35.8724 C   0  0  2  0  0  0  0  0  0  0  0  0
   17.1757   28.5619   37.8039 C   0  0  1  0  0  0  0  0  0  0  0  0
   16.8743   27.1819   37.9830 O   0  0  0  0  0  0  0  0  0  0  0  0
   21.5035   32.4772   39.5199 C   0  0  2  0  0  0  0  0  0  0  0  0
   20.9432   33.1534   38.3287 O   0  0  0  0  0  0  0  0  0  0  0  0
   20.9672   31.2449   36.1629 C   0  0  2  0  0  0  0  0  0  0  0  0
   21.1128   30.3479   37.2620 O   0  0  0  0  0  0  0  0  0  0  0  0
   18.7191   28.7871   37.8973 C   0  0  0  0  0  0  0  0  0  0  0  0
   19.4363   28.0590   36.8232 O   0  0  0  0  0  0  0  0  0  0  0  0
   20.3215   31.8445   40.3093 C   0  0  2  0  0  0  0  0  0  0  0  0
   19.5040   31.0886   39.4091 O   0  0  0  0  0  0  0  0  0  0  0  0
   20.4389   30.4343   34.9538 C   0  0  1  0  0  0  0  0  0  0  0  0
   19.1314   29.9057   35.3085 O   0  0  0  0  0  0  0  0  0  0  0  0
   19.4461   32.8908   40.9631 C   0  0  0  0  0  0  0  0  0  0  0  0
   16.4765   29.3429   38.9176 C   0  0  0  0  0  0  0  0  0  0  0  0
   14.5951   30.1292   36.2266 C   0  0  0  0  0  0  0  0  0  0  0  0
  1  2  1  1  0  0  0
  1  6  1  0  0  0  0
  1 23  1  0  0  0  0
  3  4  1  6  0  0  0
  3  8  1  0  0  0  0
  3 30  1  0  0  0  0
  5  9  1  0  0  0  0
  5 27  1  0  0  0  0
  5 31  1  1  0  0  0
  6  7  1  6  0  0  0
  6 11  1  0  0  0  0
  8 13  1  0  0  0  0
  9 10  1  6  0  0  0
  9 15  1  0  0  0  0
 11 12  1  1  0  0  0
 11 17  1  0  0  0  0
 13 14  1  6  0  0  0
 13 19  1  0  0  0  0
 15 16  1  1  0  0  0
 15 20  1  0  0  0  0
 16 34  1  0  0  0  0
 17 18  1  1  0  0  0
 17 22  1  0  0  0  0
 19  2  1  1  0  0  0
 19 24  1  0  0  0  0
 20 21  1  1  0  0  0
 20 26  1  0  0  0  0
 20 33  1  0  0  0  0
 22 23  1  6  0  0  0
 22 28  1  0  0  0  0
 24 25  1  1  0  0  0
 24 30  1  0  0  0  0
 26 27  1  0  0  0  0
 28 29  1  6  0  0  0
 28 32  1  0  0  0  0
 30 31  1  1  0  0  0
M  END
>  <CHROM.1>
-160.78520702,64.99321371,-129.62036389,172.13480980,132.24705476,-159.28939320
20.17700909,31.23947692,37.15085221,-0.43332083,-0.66651844,-1.73596559

>  <Name>
ligand

>  <RI>
0

>  <Rbt.Current_Directory>
/home/itssahil/PROJECTS/Mol_Feturizer/New_Systems/rnas/4p3s

>  <Rbt.Executable>
rbdock ($Id: //depot/dev/client3/rdock/2013.1/src/exe/rbdock.cxx#4 $)

>  <Rbt.Library>
libRbt.so (2013.1, Build901 2013/11/27)

>  <Rbt.Parameter_File>
/export/apps/rDock/src/rDock_2013.1_src/data/scripts/dock_solv.prm

>  <Rbt.Receptor>
prm/pocket_docking_4.prm

>  <SCORE>
1.38767

>  <SCORE.INTER>
2.37081

>  <SCORE.INTER.CONST>
1

>  <SCORE.INTER.POLAR>
0

>  <SCORE.INTER.ROT>
6

>  <SCORE.INTER.SOLV>
19.2023

>  <SCORE.INTER.VDW>
-12.4202

>  <SCORE.INTER.norm>
0.0697296

>  <SCORE.INTRA>
-1.03179

>  <SCORE.INTRA.DIHEDRAL>
-4.30607

>  <SCORE.INTRA.DIHEDRAL.0>
15.8194

>  <SCORE.INTRA.POLAR>
0

>  <SCORE.INTRA.POLAR.0>
0

>  <SCORE.INTRA.REPUL>
0

>  <SCORE.INTRA.REPUL.0>
0

>  <SCORE.INTRA.SOLV>
1.45967

>  <SCORE.INTRA.SOLV.lig_0>
-71.9159

>  <SCORE.INTRA.VDW>
0.391405

>  <SCORE.INTRA.VDW.0>
-3.53918

>  <SCORE.INTRA.norm>
-0.0303468

>  <SCORE.RESTR>
0.0486544

>  <SCORE.RESTR.CAVITY>
0.0486544

>  <SCORE.RESTR.norm>
0.00143101

>  <SCORE.SYSTEM>
0

>  <SCORE.SYSTEM.CONST>
0

>  <SCORE.SYSTEM.DIHEDRAL>
0

>  <SCORE.SYSTEM.SOLV>
0

>  <SCORE.SYSTEM.norm>
0

>  <SCORE.heavy>
34

>  <SCORE.norm>
0.0408138

>  <RMSD>
8.485

$$$$
ligand
 OpenBabel01301917533D
libRbt.so/2013.1/901 2013/11/27
 34 36  0  0  0  0  0  0  0  0999 V2000
   18.2489   36.8927   37.2291 C   0  0  2  0  0  0  0  0  0  0  0  0
   17.8697   35.6508   36.6272 O   0  0  0  0  0  0  0  0  0  0  0  0
   20.1603   32.2487   35.3698 C   0  0  2  0  0  0  0  0  0  0  0  0
   21.0636   31.3757   34.6078 N   0  0  0  0  0  0  0  0  0  0  0  0
   23.1099   33.7752   37.2800 C   0  0  2  0  0  0  0  0  0  0  0  0
   17.0619   37.3729   38.1462 C   0  0  2  0  0  0  0  0  0  0  0  0
   16.7619   36.3725   39.1831 N   0  0  0  0  0  0  0  0  0  0  0  0
   19.0782   32.8034   34.3745 C   0  0  0  0  0  0  0  0  0  0  0  0
   24.2416   32.7722   37.7367 C   0  0  2  0  0  0  0  0  0  0  0  0
   24.5994   31.9138   36.6673 O   0  0  0  0  0  0  0  0  0  0  0  0
   15.7928   37.6478   37.2843 C   0  0  1  0  0  0  0  0  0  0  0  0
   14.7051   38.0868   38.1188 O   0  0  0  0  0  0  0  0  0  0  0  0
   18.1027   33.7201   35.1932 C   0  0  2  0  0  0  0  0  0  0  0  0
   17.0478   34.2890   34.3067 N   0  0  0  0  0  0  0  0  0  0  0  0
   23.6923   31.9321   38.9510 C   0  0  1  0  0  0  0  0  0  0  0  0
   24.6936   30.9457   39.4043 N   0  0  0  0  0  0  0  0  0  0  0  0
   16.1508   38.7033   36.2120 C   0  0  2  0  0  0  0  0  0  0  0  0
   14.9940   38.9796   35.4161 O   0  0  0  0  0  0  0  0  0  0  0  0
   18.8777   34.8921   35.8679 C   0  0  2  0  0  0  0  0  0  0  0  0
   23.3207   32.9041   40.1153 C   0  0  1  0  0  0  0  0  0  0  0  0
   24.5017   33.5844   40.5275 O   0  0  0  0  0  0  0  0  0  0  0  0
   17.3491   38.1480   35.3278 C   0  0  2  0  0  0  0  0  0  0  0  0
   18.5310   37.8590   36.1702 O   0  0  0  0  0  0  0  0  0  0  0  0
   19.9814   34.3084   36.7912 C   0  0  2  0  0  0  0  0  0  0  0  0
   20.6944   35.3992   37.3705 O   0  0  0  0  0  0  0  0  0  0  0  0
   22.2659   33.9334   39.5964 C   0  0  0  0  0  0  0  0  0  0  0  0
   22.7651   34.6641   38.4069 O   0  0  0  0  0  0  0  0  0  0  0  0
   17.7871   39.1458   34.2174 C   0  0  2  0  0  0  0  0  0  0  0  0
   18.8434   38.5610   33.4477 O   0  0  0  0  0  0  0  0  0  0  0  0
   20.9947   33.4429   36.0021 C   0  0  1  0  0  0  0  0  0  0  0  0
   21.9680   32.9218   36.9486 O   0  0  0  0  0  0  0  0  0  0  0  0
   18.2978   40.4496   34.7899 C   0  0  0  0  0  0  0  0  0  0  0  0
   22.7584   32.1633   41.3293 C   0  0  0  0  0  0  0  0  0  0  0  0
   24.1312   29.5955   39.1565 C   0  0  0  0  0  0  0  0  0  0  0  0
  1  2  1  6  0  0  0
  1  6  1  0  0  0  0
  1 23  1  0  0  0  0
  3  4  1  6  0  0  0
  3  8  1  0  0  0  0
  3 30  1  0  0  0  0
  5  9  1  0  0  0  0
  5 27  1  0  0  0  0
  5 31  1  1  0  0  0
  6  7  1  1  0  0  0
  6 11  1  0  0  0  0
  8 13  1  0  0  0  0
  9 10  1  6  0  0  0
  9 15  1  0  0  0  0
 11 12  1  1  0  0  0
 11 17  1  0  0  0  0
 13 14  1  6  0  0  0
 13 19  1  0  0  0  0
 15 16  1  1  0  0  0
 15 20  1  0  0  0  0
 16 34  1  0  0  0  0
 17 18  1  6  0  0  0
 17 22  1  0  0  0  0
 19  2  1  1  0  0  0
 19 24  1  0  0  0  0
 20 21  1  1  0  0  0
 20 26  1  0  0  0  0
 20 33  1  0  0  0  0
 22 23  1  1  0  0  0
 22 28  1  0  0  0  0
 24 25  1  6  0  0  0
 24 30  1  0  0  0  0
 26 27  1  0  0  0  0
 28 29  1  1  0  0  0
 28 32  1  0  0  0  0
 30 31  1  1  0  0  0
M  END
>  <CHROM.1>
-171.57283754,-172.38090535,-115.37448004,-178.58760984,159.47072452,-155.01296086
20.02527130,34.95003444,37.01307275,3.12810347,0.77126404,-1.98689000

>  <Name>
ligand

>  <RI>
0

>  <Rbt.Current_Directory>
/home/itssahil/PROJECTS/Mol_Feturizer/New_Systems/rnas/4p3s

>  <Rbt.Executable>
rbdock ($Id: //depot/dev/client3/rdock/2013.1/src/exe/rbdock.cxx#4 $)

>  <Rbt.Library>
libRbt.so (2013.1, Build901 2013/11/27)

>  <Rbt.Parameter_File>
/export/apps/rDock/src/rDock_2013.1_src/data/scripts/dock_solv.prm

>  <Rbt.Receptor>
prm/pocket_docking_8.prm

>  <SCORE>
-6.09781

>  <SCORE.INTER>
-1.91665

>  <SCORE.INTER.CONST>
1

>  <SCORE.INTER.POLAR>
0

>  <SCORE.INTER.ROT>
6

>  <SCORE.INTER.SOLV>
9.82256

>  <SCORE.INTER.VDW>
-12.152

>  <SCORE.INTER.norm>
-0.0563721

>  <SCORE.INTRA>
-4.18116

>  <SCORE.INTRA.DIHEDRAL>
-9.3839

>  <SCORE.INTRA.DIHEDRAL.0>
15.8194

>  <SCORE.INTRA.POLAR>
0

>  <SCORE.INTRA.POLAR.0>
0

>  <SCORE.INTRA.REPUL>
0

>  <SCORE.INTRA.REPUL.0>
0

>  <SCORE.INTRA.SOLV>
-1.81272

>  <SCORE.INTRA.SOLV.lig_0>
-71.9159

>  <SCORE.INTRA.VDW>
1.41715

>  <SCORE.INTRA.VDW.0>
-3.53918

>  <SCORE.INTRA.norm>
-0.122975

>  <SCORE.RESTR>
0

>  <SCORE.RESTR.CAVITY>
0

>  <SCORE.RESTR.norm>
0

>  <SCORE.SYSTEM>
0

>  <SCORE.SYSTEM.CONST>
0

>  <SCORE.SYSTEM.DIHEDRAL>
0

>  <SCORE.SYSTEM.SOLV>
0

>  <SCORE.SYSTEM.norm>
0

>  <SCORE.heavy>
34

>  <SCORE.norm>
-0.179347

>  <RMSD>
8.499

$$$$
ligand
 OpenBabel01301917533D
libRbt.so/2013.1/901 2013/11/27
 34 36  0  0  0  0  0  0  0  0999 V2000
   20.2168   36.3608   31.3368 C   0  0  2  0  0  0  0  0  0  0  0  0
   19.5404   35.1006   31.2870 O   0  0  0  0  0  0  0  0  0  0  0  0
   20.5663   31.2560   32.8896 C   0  0  2  0  0  0  0  0  0  0  0  0
   21.2108   29.9505   33.0874 N   0  0  0  0  0  0  0  0  0  0  0  0
   23.3810   32.9949   34.8119 C   0  0  2  0  0  0  0  0  0  0  0  0
   19.1360   37.4999   31.2139 C   0  0  2  0  0  0  0  0  0  0  0  0
   18.1485   37.4061   32.3011 N   0  0  0  0  0  0  0  0  0  0  0  0
   20.0343   31.3081   31.4120 C   0  0  0  0  0  0  0  0  0  0  0  0
   23.8609   32.3034   36.1486 C   0  0  2  0  0  0  0  0  0  0  0  0
   24.0496   30.9138   35.9437 O   0  0  0  0  0  0  0  0  0  0  0  0
   18.4204   37.4161   29.8319 C   0  0  1  0  0  0  0  0  0  0  0  0
   17.4313   38.4555   29.7153 O   0  0  0  0  0  0  0  0  0  0  0  0
   19.3292   32.6949   31.2076 C   0  0  2  0  0  0  0  0  0  0  0  0
   18.8024   32.8172   29.8184 N   0  0  0  0  0  0  0  0  0  0  0  0
   22.7616   32.5487   37.2503 C   0  0  1  0  0  0  0  0  0  0  0  0
   23.1342   31.8937   38.5204 N   0  0  0  0  0  0  0  0  0  0  0  0
   19.4913   37.5209   28.7209 C   0  0  2  0  0  0  0  0  0  0  0  0
   18.8529   37.4581   27.4416 O   0  0  0  0  0  0  0  0  0  0  0  0
   20.3219   33.8667   31.4736 C   0  0  2  0  0  0  0  0  0  0  0  0
   22.5877   34.0860   37.4618 C   0  0  1  0  0  0  0  0  0  0  0  0
   23.8245   34.6193   37.9238 O   0  0  0  0  0  0  0  0  0  0  0  0
   20.5401   36.3416   28.9088 C   0  0  2  0  0  0  0  0  0  0  0  0
   21.1809   36.4180   30.2405 O   0  0  0  0  0  0  0  0  0  0  0  0
   20.8783   33.7452   32.9183 C   0  0  2  0  0  0  0  0  0  0  0  0
   21.8058   34.8087   33.1246 O   0  0  0  0  0  0  0  0  0  0  0  0
   22.2002   34.7426   36.0979 C   0  0  0  0  0  0  0  0  0  0  0  0
   23.2041   34.4410   35.0495 O   0  0  0  0  0  0  0  0  0  0  0  0
   21.6661   36.3642   27.8355 C   0  0  2  0  0  0  0  0  0  0  0  0
   22.5959   35.3091   28.1048 O   0  0  0  0  0  0  0  0  0  0  0  0
   21.6303   32.4090   33.1358 C   0  0  1  0  0  0  0  0  0  0  0  0
   22.0888   32.3749   34.5154 O   0  0  0  0  0  0  0  0  0  0  0  0
   22.4320   37.6689   27.8383 C   0  0  0  0  0  0  0  0  0  0  0  0
   21.5186   34.4082   38.5068 C   0  0  0  0  0  0  0  0  0  0  0  0
   22.7167   30.4732   38.4270 C   0  0  0  0  0  0  0  0  0  0  0  0
  1  2  1  6  0  0  0
  1  6  1  0  0  0  0
  1 23  1  0  0  0  0
  3  4  1  6  0  0  0
  3  8  1  0  0  0  0
  3 30  1  0  0  0  0
  5  9  1  0  0  0  0
  5 27  1  0  0  0  0
  5 31  1  1  0  0  0
  6  7  1  1  0  0  0
  6 11  1  0  0  0  0
  8 13  1  0  0  0  0
  9 10  1  6  0  0  0
  9 15  1  0  0  0  0
 11 12  1  6  0  0  0
 11 17  1  0  0  0  0
 13 14  1  6  0  0  0
 13 19  1  0  0  0  0
 15 16  1  1  0  0  0
 15 20  1  0  0  0  0
 16 34  1  0  0  0  0
 17 18  1  6  0  0  0
 17 22  1  0  0  0  0
 19  2  1  1  0  0  0
 19 24  1  0  0  0  0
 20 21  1  1  0  0  0
 20 26  1  0  0  0  0
 20 33  1  0  0  0  0
 22 23  1  1  0  0  0
 22 28  1  0  0  0  0
 24 25  1  6  0  0  0
 24 30  1  0  0  0  0
 26 27  1  0  0  0  0
 28 29  1  1  0  0  0
 28 32  1  0  0  0  0
 30 31  1  1  0  0  0
M  END
>  <CHROM.1>
-175.92791477,-173.95255874,-83.33535951,177.65782907,157.94810135,-157.26496162
21.18485851,34.37354721,32.77847960,3.13190066,1.23591823,-2.62348366

>  <Name>
ligand

>  <RI>
0

>  <Rbt.Current_Directory>
/home/itssahil/PROJECTS/Mol_Feturizer/New_Systems/rnas/4p3s

>  <Rbt.Executable>
rbdock ($Id: //depot/dev/client3/rdock/2013.1/src/exe/rbdock.cxx#4 $)

>  <Rbt.Library>
libRbt.so (2013.1, Build901 2013/11/27)

>  <Rbt.Parameter_File>
/export/apps/rDock/src/rDock_2013.1_src/data/scripts/dock_solv.prm

>  <Rbt.Receptor>
prm/blind_docking_100.prm

>  <SCORE>
-1.00805

>  <SCORE.INTER>
0.473789

>  <SCORE.INTER.CONST>
1

>  <SCORE.INTER.POLAR>
0

>  <SCORE.INTER.ROT>
6

>  <SCORE.INTER.SOLV>
13.3457

>  <SCORE.INTER.VDW>
-11.7327

>  <SCORE.INTER.norm>
0.013935

>  <SCORE.INTRA>
-3.4919

>  <SCORE.INTRA.DIHEDRAL>
-10.6782

>  <SCORE.INTRA.DIHEDRAL.0>
15.8194

>  <SCORE.INTRA.POLAR>
0

>  <SCORE.INTRA.POLAR.0>
0

>  <SCORE.INTRA.REPUL>
0

>  <SCORE.INTRA.REPUL.0>
0

>  <SCORE.INTRA.SOLV>
-1.76978

>  <SCORE.INTRA.SOLV.lig_0>
-71.9159

>  <SCORE.INTRA.VDW>
2.73206

>  <SCORE.INTRA.VDW.0>
-3.53918

>  <SCORE.INTRA.norm>
-0.102703

>  <SCORE.RESTR>
2.01007

>  <SCORE.RESTR.CAVITY>
2.01007

>  <SCORE.RESTR.norm>
0.0591197

>  <SCORE.SYSTEM>
0

>  <SCORE.SYSTEM.CONST>
0

>  <SCORE.SYSTEM.DIHEDRAL>
0

>  <SCORE.SYSTEM.SOLV>
0

>  <SCORE.SYSTEM.norm>
0

>  <SCORE.heavy>
34

>  <SCORE.norm>
-0.0296485

>  <RMSD>
8.517

$$$$
ligand
 OpenBabel01301917533D
libRbt.so/2013.1/901 2013/11/27
 34 36  0  0  0  0  0  0  0  0999 V2000
   22.6471   30.5246   36.3511 C   0  0  2  0  0  0  0  0  0  0  0  0
   21.4156   30.4692   37.0781 O   0  0  0  0  0  0  0  0  0  0  0  0
   20.5834   26.3216   36.3662 C   0  0  2  0  0  0  0  0  0  0  0  0
   19.9429   24.9995   36.3931 N   0  0  0  0  0  0  0  0  0  0  0  0
   18.0776   26.8578   33.7342 C   0  0  2  0  0  0  0  0  0  0  0  0
   23.6535   31.4233   37.1638 C   0  0  2  0  0  0  0  0  0  0  0  0
   23.8786   30.8734   38.5103 N   0  0  0  0  0  0  0  0  0  0  0  0
   20.8181   26.7699   37.8538 C   0  0  0  0  0  0  0  0  0  0  0  0
   17.5258   25.4957   34.3135 C   0  0  2  0  0  0  0  0  0  0  0  0
   17.4990   25.5380   35.7298 O   0  0  0  0  0  0  0  0  0  0  0  0
   23.1125   32.8814   37.2645 C   0  0  1  0  0  0  0  0  0  0  0  0
   24.0294   33.7064   38.0069 O   0  0  0  0  0  0  0  0  0  0  0  0
   21.5197   28.1732   37.8238 C   0  0  2  0  0  0  0  0  0  0  0  0
   21.7691   28.6660   39.2085 N   0  0  0  0  0  0  0  0  0  0  0  0
   18.4688   24.3342   33.8196 C   0  0  1  0  0  0  0  0  0  0  0  0
   18.0269   23.0323   34.3586 N   0  0  0  0  0  0  0  0  0  0  0  0
   22.8928   33.4202   35.8315 C   0  0  2  0  0  0  0  0  0  0  0  0
   22.4070   34.7645   35.9013 O   0  0  0  0  0  0  0  0  0  0  0  0
   20.6412   29.2168   37.0698 C   0  0  2  0  0  0  0  0  0  0  0  0
   18.4657   24.3057   32.2583 C   0  0  1  0  0  0  0  0  0  0  0  0
   17.1393   24.0365   31.8160 O   0  0  0  0  0  0  0  0  0  0  0  0
   21.8680   32.4671   35.0783 C   0  0  2  0  0  0  0  0  0  0  0  0
   22.3836   31.0809   35.0261 O   0  0  0  0  0  0  0  0  0  0  0  0
   20.3736   28.7098   35.6266 C   0  0  2  0  0  0  0  0  0  0  0  0
   19.5436   29.6656   34.9700 O   0  0  0  0  0  0  0  0  0  0  0  0
   18.9325   25.6989   31.7269 C   0  0  0  0  0  0  0  0  0  0  0  0
   18.0836   26.7915   32.2596 O   0  0  0  0  0  0  0  0  0  0  0  0
   21.5842   32.9259   33.6191 C   0  0  2  0  0  0  0  0  0  0  0  0
   21.0888   34.2692   33.6348 O   0  0  0  0  0  0  0  0  0  0  0  0
   19.6305   27.3510   35.6216 C   0  0  1  0  0  0  0  0  0  0  0  0
   19.4494   26.9471   34.2364 O   0  0  0  0  0  0  0  0  0  0  0  0
   20.5488   32.0579   32.9385 C   0  0  0  0  0  0  0  0  0  0  0  0
   19.3775   23.2129   31.6985 C   0  0  0  0  0  0  0  0  0  0  0  0
   19.2317   22.3268   34.8600 C   0  0  0  0  0  0  0  0  0  0  0  0
  1  2  1  1  0  0  0
  1  6  1  0  0  0  0
  1 23  1  0  0  0  0
  3  4  1  1  0  0  0
  3  8  1  0  0  0  0
  3 30  1  0  0  0  0
  5  9  1  0  0  0  0
  5 27  1  0  0  0  0
  5 31  1  1  0  0  0
  6  7  1  1  0  0  0
  6 11  1  0  0  0  0
  8 13  1  0  0  0  0
  9 10  1  1  0  0  0
  9 15  1  0  0  0  0
 11 12  1  6  0  0  0
 11 17  1  0  0  0  0
 13 14  1  1  0  0  0
 13 19  1  0  0  0  0
 15 16  1  1  0  0  0
 15 20  1  0  0  0  0
 16 34  1  0  0  0  0
 17 18  1  1  0  0  0
 17 22  1  0  0  0  0
 19  2  1  6  0  0  0
 19 24  1  0  0  0  0
 20 21  1  6  0  0  0
 20 26  1  0  0  0  0
 20 33  1  0  0  0  0
 22 23  1  6  0  0  0
 22 28  1  0  0  0  0
 24 25  1  6  0  0  0
 24 30  1  0  0  0  0
 26 27  1  0  0  0  0
 28 29  1  1  0  0  0
 28 32  1  0  0  0  0
 30 31  1  6  0  0  0
M  END
>  <CHROM.1>
-144.11568041,65.94381887,-134.43023820,-57.22410338,129.12740618,-77.66550820
20.47257701,28.53733474,35.21038825,-0.55159775,1.03694577,2.51023442

>  <Name>
ligand

>  <RI>
0

>  <Rbt.Current_Directory>
/home/itssahil/PROJECTS/Mol_Feturizer/New_Systems/rnas/4p3s

>  <Rbt.Executable>
rbdock ($Id: //depot/dev/client3/rdock/2013.1/src/exe/rbdock.cxx#4 $)

>  <Rbt.Library>
libRbt.so (2013.1, Build901 2013/11/27)

>  <Rbt.Parameter_File>
/export/apps/rDock/src/rDock_2013.1_src/data/scripts/dock_solv.prm

>  <Rbt.Receptor>
prm/blind_docking_80.prm

>  <SCORE>
0.555042

>  <SCORE.INTER>
-5.03262

>  <SCORE.INTER.CONST>
1

>  <SCORE.INTER.POLAR>
0

>  <SCORE.INTER.ROT>
6

>  <SCORE.INTER.SOLV>
16.7378

>  <SCORE.INTER.VDW>
-16.5344

>  <SCORE.INTER.norm>
-0.148018

>  <SCORE.INTRA>
2.63907

>  <SCORE.INTRA.DIHEDRAL>
-1.68218

>  <SCORE.INTRA.DIHEDRAL.0>
15.8194

>  <SCORE.INTRA.POLAR>
0

>  <SCORE.INTRA.POLAR.0>
0

>  <SCORE.INTRA.REPUL>
0

>  <SCORE.INTRA.REPUL.0>
0

>  <SCORE.INTRA.SOLV>
5.83271

>  <SCORE.INTRA.SOLV.lig_0>
-71.9159

>  <SCORE.INTRA.VDW>
0.563811

>  <SCORE.INTRA.VDW.0>
-3.53918

>  <SCORE.INTRA.norm>
0.0776198

>  <SCORE.RESTR>
2.94859

>  <SCORE.RESTR.CAVITY>
2.94859

>  <SCORE.RESTR.norm>
0.0867233

>  <SCORE.SYSTEM>
0

>  <SCORE.SYSTEM.CONST>
0

>  <SCORE.SYSTEM.DIHEDRAL>
0

>  <SCORE.SYSTEM.SOLV>
0

>  <SCORE.SYSTEM.norm>
0

>  <SCORE.heavy>
34

>  <SCORE.norm>
0.0163248

>  <RMSD>
8.518

$$$$
ligand
 OpenBabel01301917533D
libRbt.so/2013.1/901 2013/11/27
 34 36  0  0  0  0  0  0  0  0999 V2000
   21.6798   32.5842   35.9264 C   0  0  2  0  0  0  0  0  0  0  0  0
   22.4967   32.3763   34.7698 O   0  0  0  0  0  0  0  0  0  0  0  0
   19.5136   30.8390   32.0977 C   0  0  2  0  0  0  0  0  0  0  0  0
   18.8660   30.1972   30.9456 N   0  0  0  0  0  0  0  0  0  0  0  0
   19.8236   28.0707   34.6854 C   0  0  2  0  0  0  0  0  0  0  0  0
   22.1333   33.9294   36.6086 C   0  0  2  0  0  0  0  0  0  0  0  0
   21.9994   35.0613   35.6776 N   0  0  0  0  0  0  0  0  0  0  0  0
   20.4787   31.9499   31.5466 C   0  0  0  0  0  0  0  0  0  0  0  0
   19.3121   26.5861   34.5136 C   0  0  2  0  0  0  0  0  0  0  0  0
   19.9606   25.9659   33.4166 O   0  0  0  0  0  0  0  0  0  0  0  0
   23.6073   33.8128   37.1013 C   0  0  1  0  0  0  0  0  0  0  0  0
   24.0260   35.0405   37.7256 O   0  0  0  0  0  0  0  0  0  0  0  0
   21.1552   32.6477   32.7785 C   0  0  2  0  0  0  0  0  0  0  0  0
   22.0939   33.7148   32.3283 N   0  0  0  0  0  0  0  0  0  0  0  0
   17.7552   26.6278   34.2751 C   0  0  1  0  0  0  0  0  0  0  0  0
   17.2177   25.2677   34.0698 N   0  0  0  0  0  0  0  0  0  0  0  0
   23.7024   32.6161   38.0764 C   0  0  2  0  0  0  0  0  0  0  0  0
   25.0474   32.4987   38.5508 O   0  0  0  0  0  0  0  0  0  0  0  0
   21.9445   31.6140   33.6375 C   0  0  2  0  0  0  0  0  0  0  0  0
   17.0703   27.3033   35.5051 C   0  0  1  0  0  0  0  0  0  0  0  0
   17.3347   26.5112   36.6584 O   0  0  0  0  0  0  0  0  0  0  0  0
   23.2335   31.3002   37.3183 C   0  0  2  0  0  0  0  0  0  0  0  0
   21.8452   31.4457   36.8269 O   0  0  0  0  0  0  0  0  0  0  0  0
   20.9746   30.4964   34.1083 C   0  0  2  0  0  0  0  0  0  0  0  0
   21.7266   29.5492   34.8640 O   0  0  0  0  0  0  0  0  0  0  0  0
   17.6679   28.7347   35.6928 C   0  0  0  0  0  0  0  0  0  0  0  0
   19.1424   28.6885   35.8400 O   0  0  0  0  0  0  0  0  0  0  0  0
   23.2896   30.0353   38.2223 C   0  0  2  0  0  0  0  0  0  0  0  0
   24.6450   29.7980   38.6180 O   0  0  0  0  0  0  0  0  0  0  0  0
   20.3322   29.7495   32.9134 C   0  0  1  0  0  0  0  0  0  0  0  0
   19.4260   28.7466   33.4496 O   0  0  0  0  0  0  0  0  0  0  0  0
   22.7924   28.7989   37.5064 C   0  0  0  0  0  0  0  0  0  0  0  0
   15.5529   27.4000   35.3406 C   0  0  0  0  0  0  0  0  0  0  0  0
   17.3468   24.9521   32.6260 C   0  0  0  0  0  0  0  0  0  0  0  0
  1  2  1  6  0  0  0
  1  6  1  0  0  0  0
  1 23  1  0  0  0  0
  3  4  1  6  0  0  0
  3  8  1  0  0  0  0
  3 30  1  0  0  0  0
  5  9  1  0  0  0  0
  5 27  1  0  0  0  0
  5 31  1  6  0  0  0
  6  7  1  6  0  0  0
  6 11  1  0  0  0  0
  8 13  1  0  0  0  0
  9 10  1  6  0  0  0
  9 15  1  0  0  0  0
 11 12  1  1  0  0  0
 11 17  1  0  0  0  0
 13 14  1  6  0  0  0
 13 19  1  0  0  0  0
 15 16  1  1  0  0  0
 15 20  1  0  0  0  0
 16 34  1  0  0  0  0
 17 18  1  6  0  0  0
 17 22  1  0  0  0  0
 19  2  1  1  0  0  0
 19 24  1  0  0  0  0
 20 21  1  1  0  0  0
 20 26  1  0  0  0  0
 20 33  1  0  0  0  0
 22 23  1  1  0  0  0
 22 28  1  0  0  0  0
 24 25  1  1  0  0  0
 24 30  1  0  0  0  0
 26 27  1  0  0  0  0
 28 29  1  6  0  0  0
 28 32  1  0  0  0  0
 30 31  1  1  0  0  0
M  END
>  <CHROM.1>
-151.77583213,85.20121346,-86.71411633,-62.61272146,-151.51069071,-143.80610425
20.75957598,30.11484958,35.16066773,0.23565330,-0.85783596,-0.84504025

>  <Name>
ligand

>  <RI>
0

>  <Rbt.Current_Directory>
/home/itssahil/PROJECTS/Mol_Feturizer/New_Systems/rnas/4p3s

>  <Rbt.Executable>
rbdock ($Id: //depot/dev/client3/rdock/2013.1/src/exe/rbdock.cxx#4 $)

>  <Rbt.Library>
libRbt.so (2013.1, Build901 2013/11/27)

>  <Rbt.Parameter_File>
/export/apps/rDock/src/rDock_2013.1_src/data/scripts/dock_solv.prm

>  <Rbt.Receptor>
prm/blind_docking_80.prm

>  <SCORE>
15.7813

>  <SCORE.INTER>
3.97869

>  <SCORE.INTER.CONST>
1

>  <SCORE.INTER.POLAR>
0

>  <SCORE.INTER.ROT>
6

>  <SCORE.INTER.SOLV>
19.1113

>  <SCORE.INTER.VDW>
-11.318

>  <SCORE.INTER.norm>
0.11702

>  <SCORE.INTRA>
7.34352

>  <SCORE.INTRA.DIHEDRAL>
-1.25358

>  <SCORE.INTRA.DIHEDRAL.0>
15.8194

>  <SCORE.INTRA.POLAR>
0

>  <SCORE.INTRA.POLAR.0>
0

>  <SCORE.INTRA.REPUL>
0.333282

>  <SCORE.INTRA.REPUL.0>
0

>  <SCORE.INTRA.SOLV>
0.179824

>  <SCORE.INTRA.SOLV.lig_0>
-71.9159

>  <SCORE.INTRA.VDW>
6.21399

>  <SCORE.INTRA.VDW.0>
-3.53918

>  <SCORE.INTRA.norm>
0.215986

>  <SCORE.RESTR>
4.45908

>  <SCORE.RESTR.CAVITY>
4.45908

>  <SCORE.RESTR.norm>
0.131149

>  <SCORE.SYSTEM>
0

>  <SCORE.SYSTEM.CONST>
0

>  <SCORE.SYSTEM.DIHEDRAL>
0

>  <SCORE.SYSTEM.SOLV>
0

>  <SCORE.SYSTEM.norm>
0

>  <SCORE.heavy>
34

>  <SCORE.norm>
0.464155

>  <RMSD>
8.532

$$$$
ligand
 OpenBabel01301917533D
libRbt.so/2013.1/901 2013/11/27
 34 36  0  0  0  0  0  0  0  0999 V2000
   20.3092   36.3187   31.4077 C   0  0  2  0  0  0  0  0  0  0  0  0
   19.6182   35.0736   31.2648 O   0  0  0  0  0  0  0  0  0  0  0  0
   20.4974   31.2241   32.9413 C   0  0  2  0  0  0  0  0  0  0  0  0
   21.0991   29.9035   33.1705 N   0  0  0  0  0  0  0  0  0  0  0  0
   23.3343   32.8807   34.8942 C   0  0  2  0  0  0  0  0  0  0  0  0
   19.2956   37.4794   31.0820 C   0  0  2  0  0  0  0  0  0  0  0  0
   18.1350   37.4318   31.9858 N   0  0  0  0  0  0  0  0  0  0  0  0
   19.9980   31.2705   31.4521 C   0  0  0  0  0  0  0  0  0  0  0  0
   23.7505   32.1957   36.2555 C   0  0  2  0  0  0  0  0  0  0  0  0
   23.8709   30.7940   36.0844 O   0  0  0  0  0  0  0  0  0  0  0  0
   18.8242   37.3822   29.5997 C   0  0  1  0  0  0  0  0  0  0  0  0
   17.8972   38.4414   29.2977 O   0  0  0  0  0  0  0  0  0  0  0  0
   19.3383   32.6741   31.2139 C   0  0  2  0  0  0  0  0  0  0  0  0
   18.8444   32.7918   29.8123 N   0  0  0  0  0  0  0  0  0  0  0  0
   22.6433   32.5219   37.3278 C   0  0  1  0  0  0  0  0  0  0  0  0
   22.9555   31.8774   38.6193 N   0  0  0  0  0  0  0  0  0  0  0  0
   20.0713   37.4384   28.6866 C   0  0  2  0  0  0  0  0  0  0  0  0
   19.6590   37.3628   27.3183 O   0  0  0  0  0  0  0  0  0  0  0  0
   20.3592   33.8203   31.4848 C   0  0  2  0  0  0  0  0  0  0  0  0
   22.5450   34.0705   37.5026 C   0  0  1  0  0  0  0  0  0  0  0  0
   23.7982   34.5497   37.9795 O   0  0  0  0  0  0  0  0  0  0  0  0
   21.0413   36.2396   29.0714 C   0  0  2  0  0  0  0  0  0  0  0  0
   21.4473   36.3301   30.4917 O   0  0  0  0  0  0  0  0  0  0  0  0
   20.8816   33.7034   32.9424 C   0  0  2  0  0  0  0  0  0  0  0  0
   21.8354   34.7423   33.1539 O   0  0  0  0  0  0  0  0  0  0  0  0
   22.2198   34.7153   36.1170 C   0  0  0  0  0  0  0  0  0  0  0  0
   23.2278   34.3389   35.0970 O   0  0  0  0  0  0  0  0  0  0  0  0
   22.3341   36.2133   28.2063 C   0  0  2  0  0  0  0  0  0  0  0  0
   22.9090   37.5243   28.1772 O   0  0  0  0  0  0  0  0  0  0  0  0
   21.5895   32.3491   33.1941 C   0  0  1  0  0  0  0  0  0  0  0  0
   22.0179   32.3215   34.5835 O   0  0  0  0  0  0  0  0  0  0  0  0
   22.0577   35.7964   26.7786 C   0  0  0  0  0  0  0  0  0  0  0  0
   21.4731   34.4707   38.5173 C   0  0  0  0  0  0  0  0  0  0  0  0
   24.3904   32.1242   38.9038 C   0  0  0  0  0  0  0  0  0  0  0  0
  1  2  1  6  0  0  0
  1  6  1  0  0  0  0
  1 23  1  0  0  0  0
  3  4  1  6  0  0  0
  3  8  1  0  0  0  0
  3 30  1  0  0  0  0
  5  9  1  0  0  0  0
  5 27  1  0  0  0  0
  5 31  1  1  0  0  0
  6  7  1  1  0  0  0
  6 11  1  0  0  0  0
  8 13  1  0  0  0  0
  9 10  1  6  0  0  0
  9 15  1  0  0  0  0
 11 12  1  6  0  0  0
 11 17  1  0  0  0  0
 13 14  1  6  0  0  0
 13 19  1  0  0  0  0
 15 16  1  1  0  0  0
 15 20  1  0  0  0  0
 16 34  1  0  0  0  0
 17 18  1  6  0  0  0
 17 22  1  0  0  0  0
 19  2  1  1  0  0  0
 19 24  1  0  0  0  0
 20 21  1  1  0  0  0
 20 26  1  0  0  0  0
 20 33  1  0  0  0  0
 22 23  1  1  0  0  0
 22 28  1  0  0  0  0
 24 25  1  6  0  0  0
 24 30  1  0  0  0  0
 26 27  1  0  0  0  0
 28 29  1  6  0  0  0
 28 32  1  0  0  0  0
 30 31  1  1  0  0  0
M  END
>  <CHROM.1>
178.55240623,-178.45191683,45.79769211,48.49071406,156.60610162,-157.31784372
21.32694210,34.39304096,32.77954709,-2.80452105,1.24393256,-3.02863178

>  <Name>
ligand

>  <RI>
0

>  <Rbt.Current_Directory>
/home/itssahil/PROJECTS/Mol_Feturizer/New_Systems/rnas/4p3s

>  <Rbt.Executable>
rbdock ($Id: //depot/dev/client3/rdock/2013.1/src/exe/rbdock.cxx#4 $)

>  <Rbt.Library>
libRbt.so (2013.1, Build901 2013/11/27)

>  <Rbt.Parameter_File>
/export/apps/rDock/src/rDock_2013.1_src/data/scripts/dock_solv.prm

>  <Rbt.Receptor>
prm/blind_docking_100.prm

>  <SCORE>
1.74041

>  <SCORE.INTER>
-1.60925

>  <SCORE.INTER.CONST>
1

>  <SCORE.INTER.POLAR>
0

>  <SCORE.INTER.ROT>
6

>  <SCORE.INTER.SOLV>
12.8695

>  <SCORE.INTER.VDW>
-12.9627

>  <SCORE.INTER.norm>
-0.0473308

>  <SCORE.INTRA>
2.61183

>  <SCORE.INTRA.DIHEDRAL>
-10.4932

>  <SCORE.INTRA.DIHEDRAL.0>
15.8194

>  <SCORE.INTRA.POLAR>
0

>  <SCORE.INTRA.POLAR.0>
0

>  <SCORE.INTRA.REPUL>
0

>  <SCORE.INTRA.REPUL.0>
0

>  <SCORE.INTRA.SOLV>
-1.29954

>  <SCORE.INTRA.SOLV.lig_0>
-71.9159

>  <SCORE.INTRA.VDW>
8.50819

>  <SCORE.INTRA.VDW.0>
-3.53918

>  <SCORE.INTRA.norm>
0.0768184

>  <SCORE.RESTR>
0.737829

>  <SCORE.RESTR.CAVITY>
0.737829

>  <SCORE.RESTR.norm>
0.0217009

>  <SCORE.SYSTEM>
0

>  <SCORE.SYSTEM.CONST>
0

>  <SCORE.SYSTEM.DIHEDRAL>
0

>  <SCORE.SYSTEM.SOLV>
0

>  <SCORE.SYSTEM.norm>
0

>  <SCORE.heavy>
34

>  <SCORE.norm>
0.0511884

>  <RMSD>
8.546

$$$$
ligand
 OpenBabel01301917533D
libRbt.so/2013.1/901 2013/11/27
 34 36  0  0  0  0  0  0  0  0999 V2000
   21.0039   34.9824   29.2682 C   0  0  2  0  0  0  0  0  0  0  0  0
   21.9689   34.7859   30.3067 O   0  0  0  0  0  0  0  0  0  0  0  0
   20.8761   31.5219   32.8668 C   0  0  2  0  0  0  0  0  0  0  0  0
   20.8202   30.1933   33.4915 N   0  0  0  0  0  0  0  0  0  0  0  0
   23.7299   32.9482   35.0452 C   0  0  2  0  0  0  0  0  0  0  0  0
   21.4036   36.2799   28.4699 C   0  0  2  0  0  0  0  0  0  0  0  0
   22.7527   36.1487   27.8964 N   0  0  0  0  0  0  0  0  0  0  0  0
   20.6683   31.3329   31.3208 C   0  0  0  0  0  0  0  0  0  0  0  0
   24.0188   32.2268   36.4205 C   0  0  2  0  0  0  0  0  0  0  0  0
   24.1756   30.8324   36.2215 O   0  0  0  0  0  0  0  0  0  0  0  0
   21.3371   37.5273   29.4019 C   0  0  1  0  0  0  0  0  0  0  0  0
   21.7019   38.7158   28.6761 O   0  0  0  0  0  0  0  0  0  0  0  0
   20.7088   32.7542   30.6569 C   0  0  2  0  0  0  0  0  0  0  0  0
   20.5233   32.6507   29.1814 N   0  0  0  0  0  0  0  0  0  0  0  0
   22.8061   32.5076   37.3864 C   0  0  1  0  0  0  0  0  0  0  0  0
   22.9978   31.8276   38.6832 N   0  0  0  0  0  0  0  0  0  0  0  0
   19.9059   37.6287   29.9794 C   0  0  2  0  0  0  0  0  0  0  0  0
   19.8197   38.7764   30.8299 O   0  0  0  0  0  0  0  0  0  0  0  0
   22.0674   33.4622   30.9441 C   0  0  2  0  0  0  0  0  0  0  0  0
   22.6689   34.0489   37.5956 C   0  0  1  0  0  0  0  0  0  0  0  0
   23.8615   34.5276   38.2087 O   0  0  0  0  0  0  0  0  0  0  0  0
   19.5774   36.2898   30.7702 C   0  0  2  0  0  0  0  0  0  0  0  0
   19.6822   35.1149   29.8765 O   0  0  0  0  0  0  0  0  0  0  0  0
   22.2705   33.5714   32.4797 C   0  0  2  0  0  0  0  0  0  0  0  0
   23.5323   34.1930   32.7147 O   0  0  0  0  0  0  0  0  0  0  0  0
   22.4735   34.7320   36.2039 C   0  0  0  0  0  0  0  0  0  0  0  0
   23.5829   34.3983   35.2788 O   0  0  0  0  0  0  0  0  0  0  0  0
   18.1497   36.2934   31.3881 C   0  0  2  0  0  0  0  0  0  0  0  0
   17.8942   35.0210   31.9930 O   0  0  0  0  0  0  0  0  0  0  0  0
   22.2919   32.1796   33.1587 C   0  0  1  0  0  0  0  0  0  0  0  0
   22.4589   32.3838   34.5887 O   0  0  0  0  0  0  0  0  0  0  0  0
   17.0778   36.5360   30.3485 C   0  0  0  0  0  0  0  0  0  0  0  0
   21.4959   34.4059   38.5098 C   0  0  0  0  0  0  0  0  0  0  0  0
   22.5822   30.4142   38.5096 C   0  0  0  0  0  0  0  0  0  0  0  0
  1  2  1  1  0  0  0
  1  6  1  0  0  0  0
  1 23  1  0  0  0  0
  3  4  1  1  0  0  0
  3  8  1  0  0  0  0
  3 30  1  0  0  0  0
  5  9  1  0  0  0  0
  5 27  1  0  0  0  0
  5 31  1  1  0  0  0
  6  7  1  1  0  0  0
  6 11  1  0  0  0  0
  8 13  1  0  0  0  0
  9 10  1  6  0  0  0
  9 15  1  0  0  0  0
 11 12  1  6  0  0  0
 11 17  1  0  0  0  0
 13 14  1  6  0  0  0
 13 19  1  0  0  0  0
 15 16  1  1  0  0  0
 15 20  1  0  0  0  0
 16 34  1  0  0  0  0
 17 18  1  1  0  0  0
 17 22  1  0  0  0  0
 19  2  1  6  0  0  0
 19 24  1  0  0  0  0
 20 21  1  1  0  0  0
 20 26  1  0  0  0  0
 20 33  1  0  0  0  0
 22 23  1  6  0  0  0
 22 28  1  0  0  0  0
 24 25  1  6  0  0  0
 24 30  1  0  0  0  0
 26 27  1  0  0  0  0
 28 29  1  6  0  0  0
 28 32  1  0  0  0  0
 30 31  1  1  0  0  0
M  END
>  <CHROM.1>
-162.34218353,-20.57123162,-81.44167168,175.66022413,178.24704744,-144.16895472
21.55961063,34.17691447,32.92518782,-3.11911688,-1.25679559,0.50840038

>  <Name>
ligand

>  <RI>
0

>  <Rbt.Current_Directory>
/home/itssahil/PROJECTS/Mol_Feturizer/New_Systems/rnas/4p3s

>  <Rbt.Executable>
rbdock ($Id: //depot/dev/client3/rdock/2013.1/src/exe/rbdock.cxx#4 $)

>  <Rbt.Library>
libRbt.so (2013.1, Build901 2013/11/27)

>  <Rbt.Parameter_File>
/export/apps/rDock/src/rDock_2013.1_src/data/scripts/dock_solv.prm

>  <Rbt.Receptor>
prm/blind_docking_100.prm

>  <SCORE>
8.93066

>  <SCORE.INTER>
-1.81616

>  <SCORE.INTER.CONST>
1

>  <SCORE.INTER.POLAR>
0

>  <SCORE.INTER.ROT>
6

>  <SCORE.INTER.SOLV>
11.9732

>  <SCORE.INTER.VDW>
-12.8019

>  <SCORE.INTER.norm>
-0.0534165

>  <SCORE.INTRA>
9.07887

>  <SCORE.INTRA.DIHEDRAL>
-3.90591

>  <SCORE.INTRA.DIHEDRAL.0>
15.8194

>  <SCORE.INTRA.POLAR>
0

>  <SCORE.INTRA.POLAR.0>
0

>  <SCORE.INTRA.REPUL>
0

>  <SCORE.INTRA.REPUL.0>
0

>  <SCORE.INTRA.SOLV>
0.591535

>  <SCORE.INTRA.SOLV.lig_0>
-71.9159

>  <SCORE.INTRA.VDW>
10.7361

>  <SCORE.INTRA.VDW.0>
-3.53918

>  <SCORE.INTRA.norm>
0.267026

>  <SCORE.RESTR>
1.66795

>  <SCORE.RESTR.CAVITY>
1.66795

>  <SCORE.RESTR.norm>
0.0490575

>  <SCORE.SYSTEM>
0

>  <SCORE.SYSTEM.CONST>
0

>  <SCORE.SYSTEM.DIHEDRAL>
0

>  <SCORE.SYSTEM.SOLV>
0

>  <SCORE.SYSTEM.norm>
0

>  <SCORE.heavy>
34

>  <SCORE.norm>
0.262667

>  <RMSD>
8.562

$$$$
ligand
 OpenBabel01301917533D
libRbt.so/2013.1/901 2013/11/27
 34 36  0  0  0  0  0  0  0  0999 V2000
   21.1569   34.2143   29.8920 C   0  0  2  0  0  0  0  0  0  0  0  0
   22.4345   33.7252   30.3124 O   0  0  0  0  0  0  0  0  0  0  0  0
   21.0948   31.7498   33.8768 C   0  0  2  0  0  0  0  0  0  0  0  0
   21.0201   30.8358   35.0247 N   0  0  0  0  0  0  0  0  0  0  0  0
   23.3395   34.2708   35.7278 C   0  0  2  0  0  0  0  0  0  0  0  0
   21.2653   34.6206   28.3742 C   0  0  2  0  0  0  0  0  0  0  0  0
   21.6688   33.4698   27.5503 N   0  0  0  0  0  0  0  0  0  0  0  0
   21.2551   30.8773   32.5799 C   0  0  0  0  0  0  0  0  0  0  0  0
   24.0834   33.2462   36.6723 C   0  0  2  0  0  0  0  0  0  0  0  0
   24.5176   32.1191   35.9309 O   0  0  0  0  0  0  0  0  0  0  0  0
   22.2844   35.7870   28.2006 C   0  0  1  0  0  0  0  0  0  0  0  0
   22.3867   36.1615   26.8144 O   0  0  0  0  0  0  0  0  0  0  0  0
   21.3153   31.8535   31.3528 C   0  0  2  0  0  0  0  0  0  0  0  0
   21.4738   31.0910   30.0817 N   0  0  0  0  0  0  0  0  0  0  0  0
   23.0796   32.8026   37.8028 C   0  0  1  0  0  0  0  0  0  0  0  0
   23.7047   31.8125   38.7027 N   0  0  0  0  0  0  0  0  0  0  0  0
   21.8224   36.9731   29.0791 C   0  0  2  0  0  0  0  0  0  0  0  0
   22.7393   38.0609   28.9247 O   0  0  0  0  0  0  0  0  0  0  0  0
   22.5064   32.8488   31.4935 C   0  0  2  0  0  0  0  0  0  0  0  0
   22.6316   34.0630   38.6084 C   0  0  1  0  0  0  0  0  0  0  0  0
   23.7818   34.6388   39.2190 O   0  0  0  0  0  0  0  0  0  0  0  0
   21.7402   36.4885   30.5906 C   0  0  2  0  0  0  0  0  0  0  0  0
   20.7956   35.3575   30.7271 O   0  0  0  0  0  0  0  0  0  0  0  0
   22.3510   33.6456   32.8174 C   0  0  2  0  0  0  0  0  0  0  0  0
   23.4676   34.5246   32.9369 O   0  0  0  0  0  0  0  0  0  0  0  0
   21.9817   35.0871   37.6233 C   0  0  0  0  0  0  0  0  0  0  0  0
   22.9092   35.4387   36.5213 O   0  0  0  0  0  0  0  0  0  0  0  0
   21.2772   37.6161   31.5572 C   0  0  2  0  0  0  0  0  0  0  0  0
   21.2323   37.1032   32.8933 O   0  0  0  0  0  0  0  0  0  0  0  0
   22.3450   32.7132   34.0539 C   0  0  1  0  0  0  0  0  0  0  0  0
   22.1696   33.5417   35.2360 O   0  0  0  0  0  0  0  0  0  0  0  0
   19.8979   38.1333   31.2127 C   0  0  0  0  0  0  0  0  0  0  0  0
   21.6362   33.7168   39.7166 C   0  0  0  0  0  0  0  0  0  0  0  0
   23.7339   30.5150   37.9841 C   0  0  0  0  0  0  0  0  0  0  0  0
  1  2  1  1  0  0  0
  1  6  1  0  0  0  0
  1 23  1  0  0  0  0
  3  4  1  1  0  0  0
  3  8  1  0  0  0  0
  3 30  1  0  0  0  0
  5  9  1  0  0  0  0
  5 27  1  0  0  0  0
  5 31  1  1  0  0  0
  6  7  1  6  0  0  0
  6 11  1  0  0  0  0
  8 13  1  0  0  0  0
  9 10  1  6  0  0  0
  9 15  1  0  0  0  0
 11 12  1  6  0  0  0
 11 17  1  0  0  0  0
 13 14  1  6  0  0  0
 13 19  1  0  0  0  0
 15 16  1  1  0  0  0
 15 20  1  0  0  0  0
 16 34  1  0  0  0  0
 17 18  1  1  0  0  0
 17 22  1  0  0  0  0
 19  2  1  6  0  0  0
 19 24  1  0  0  0  0
 20 21  1  1  0  0  0
 20 26  1  0  0  0  0
 20 33  1  0  0  0  0
 22 23  1  6  0  0  0
 22 28  1  0  0  0  0
 24 25  1  1  0  0  0
 24 30  1  0  0  0  0
 26 27  1  0  0  0  0
 28 29  1  1  0  0  0
 28 32  1  0  0  0  0
 30 31  1  1  0  0  0
M  END
>  <CHROM.1>
-158.29141016,42.57765060,-75.67257239,-179.85311110,166.61222669,-86.17163561
22.22462141,34.12852986,33.25200320,3.12431341,-1.42656413,0.27094570

>  <Name>
ligand

>  <RI>
0

>  <Rbt.Current_Directory>
/home/itssahil/PROJECTS/Mol_Feturizer/New_Systems/rnas/4p3s

>  <Rbt.Executable>
rbdock ($Id: //depot/dev/client3/rdock/2013.1/src/exe/rbdock.cxx#4 $)

>  <Rbt.Library>
libRbt.so (2013.1, Build901 2013/11/27)

>  <Rbt.Parameter_File>
/export/apps/rDock/src/rDock_2013.1_src/data/scripts/dock_solv.prm

>  <Rbt.Receptor>
prm/blind_docking_100.prm

>  <SCORE>
-3.03017

>  <SCORE.INTER>
-5.50883

>  <SCORE.INTER.CONST>
1

>  <SCORE.INTER.POLAR>
0

>  <SCORE.INTER.ROT>
6

>  <SCORE.INTER.SOLV>
13.64

>  <SCORE.INTER.VDW>
-15.8192

>  <SCORE.INTER.norm>
-0.162024

>  <SCORE.INTRA>
0.155638

>  <SCORE.INTRA.DIHEDRAL>
-8.33517

>  <SCORE.INTRA.DIHEDRAL.0>
15.8194

>  <SCORE.INTRA.POLAR>
0

>  <SCORE.INTRA.POLAR.0>
0

>  <SCORE.INTRA.REPUL>
0

>  <SCORE.INTRA.REPUL.0>
0

>  <SCORE.INTRA.SOLV>
2.05282

>  <SCORE.INTRA.SOLV.lig_0>
-71.9159

>  <SCORE.INTRA.VDW>
3.29681

>  <SCORE.INTRA.VDW.0>
-3.53918

>  <SCORE.INTRA.norm>
0.00457759

>  <SCORE.RESTR>
2.32302

>  <SCORE.RESTR.CAVITY>
2.32302

>  <SCORE.RESTR.norm>
0.0683242

>  <SCORE.SYSTEM>
0

>  <SCORE.SYSTEM.CONST>
0

>  <SCORE.SYSTEM.DIHEDRAL>
0

>  <SCORE.SYSTEM.SOLV>
0

>  <SCORE.SYSTEM.norm>
0

>  <SCORE.heavy>
34

>  <SCORE.norm>
-0.0891227

>  <RMSD>
8.563

$$$$
ligand
 OpenBabel01301917533D
libRbt.so/2013.1/901 2013/11/27
 34 36  0  0  0  0  0  0  0  0999 V2000
   21.7425   35.9348   30.6530 C   0  0  2  0  0  0  0  0  0  0  0  0
   21.0687   34.6758   30.5591 O   0  0  0  0  0  0  0  0  0  0  0  0
   20.9408   31.6431   33.5904 C   0  0  2  0  0  0  0  0  0  0  0  0
   21.2713   30.4659   34.4050 N   0  0  0  0  0  0  0  0  0  0  0  0
   23.3185   33.9453   35.5537 C   0  0  2  0  0  0  0  0  0  0  0  0
   20.8093   36.9303   31.4397 C   0  0  2  0  0  0  0  0  0  0  0  0
   20.5033   36.4125   32.7829 N   0  0  0  0  0  0  0  0  0  0  0  0
   20.8448   31.1771   32.0928 C   0  0  0  0  0  0  0  0  0  0  0  0
   24.0752   32.9936   36.5622 C   0  0  2  0  0  0  0  0  0  0  0  0
   24.4929   31.8105   35.9032 O   0  0  0  0  0  0  0  0  0  0  0  0
   19.4901   37.1725   30.6459 C   0  0  1  0  0  0  0  0  0  0  0  0
   18.6338   38.0818   31.3616 O   0  0  0  0  0  0  0  0  0  0  0  0
   20.4728   32.4311   31.2261 C   0  0  2  0  0  0  0  0  0  0  0  0
   20.3701   32.0627   29.7852 N   0  0  0  0  0  0  0  0  0  0  0  0
   23.0895   32.6436   37.7404 C   0  0  1  0  0  0  0  0  0  0  0  0
   23.7267   31.7234   38.7037 N   0  0  0  0  0  0  0  0  0  0  0  0
   19.8565   37.7171   29.2455 C   0  0  2  0  0  0  0  0  0  0  0  0
   18.6568   37.9581   28.5033 O   0  0  0  0  0  0  0  0  0  0  0  0
   21.5445   33.5519   31.3830 C   0  0  2  0  0  0  0  0  0  0  0  0
   22.6595   33.9647   38.4532 C   0  0  1  0  0  0  0  0  0  0  0  0
   23.8219   34.5809   38.9978 O   0  0  0  0  0  0  0  0  0  0  0  0
   20.7929   36.6609   28.5149 C   0  0  2  0  0  0  0  0  0  0  0  0
   22.0219   36.4179   29.3027 O   0  0  0  0  0  0  0  0  0  0  0  0
   21.6604   33.9398   32.8822 C   0  0  2  0  0  0  0  0  0  0  0  0
   22.6676   34.9423   33.0019 O   0  0  0  0  0  0  0  0  0  0  0  0
   21.9961   34.9124   37.4028 C   0  0  0  0  0  0  0  0  0  0  0  0
   22.9056   35.1732   36.2613 O   0  0  0  0  0  0  0  0  0  0  0  0
   21.2215   37.1227   27.0925 C   0  0  2  0  0  0  0  0  0  0  0  0
   20.0519   37.3694   26.3042 O   0  0  0  0  0  0  0  0  0  0  0  0
   22.0821   32.7346   33.7585 C   0  0  1  0  0  0  0  0  0  0  0  0
   22.1379   33.1856   35.1398 O   0  0  0  0  0  0  0  0  0  0  0  0
   22.0501   36.0779   26.3781 C   0  0  0  0  0  0  0  0  0  0  0  0
   21.6822   33.7101   39.6016 C   0  0  0  0  0  0  0  0  0  0  0  0
   23.6231   30.3532   38.1447 C   0  0  0  0  0  0  0  0  0  0  0  0
  1  2  1  6  0  0  0
  1  6  1  0  0  0  0
  1 23  1  0  0  0  0
  3  4  1  1  0  0  0
  3  8  1  0  0  0  0
  3 30  1  0  0  0  0
  5  9  1  0  0  0  0
  5 27  1  0  0  0  0
  5 31  1  1  0  0  0
  6  7  1  1  0  0  0
  6 11  1  0  0  0  0
  8 13  1  0  0  0  0
  9 10  1  6  0  0  0
  9 15  1  0  0  0  0
 11 12  1  1  0  0  0
 11 17  1  0  0  0  0
 13 14  1  6  0  0  0
 13 19  1  0  0  0  0
 15 16  1  1  0  0  0
 15 20  1  0  0  0  0
 16 34  1  0  0  0  0
 17 18  1  6  0  0  0
 17 22  1  0  0  0  0
 19  2  1  6  0  0  0
 19 24  1  0  0  0  0
 20 21  1  1  0  0  0
 20 26  1  0  0  0  0
 20 33  1  0  0  0  0
 22 23  1  1  0  0  0
 22 28  1  0  0  0  0
 24 25  1  6  0  0  0
 24 30  1  0  0  0  0
 26 27  1  0  0  0  0
 28 29  1  6  0  0  0
 28 32  1  0  0  0  0
 30 31  1  1  0  0  0
M  END
>  <CHROM.1>
-107.10209196,170.86396572,-80.98397173,-57.38161064,165.88530346,-111.94956693
21.66014983,34.45479725,33.03300841,2.82649351,1.29162438,-2.40200287

>  <Name>
ligand

>  <RI>
0

>  <Rbt.Current_Directory>
/home/itssahil/PROJECTS/Mol_Feturizer/New_Systems/rnas/4p3s

>  <Rbt.Executable>
rbdock ($Id: //depot/dev/client3/rdock/2013.1/src/exe/rbdock.cxx#4 $)

>  <Rbt.Library>
libRbt.so (2013.1, Build901 2013/11/27)

>  <Rbt.Parameter_File>
/export/apps/rDock/src/rDock_2013.1_src/data/scripts/dock_solv.prm

>  <Rbt.Receptor>
prm/blind_docking_100.prm

>  <SCORE>
3.47993

>  <SCORE.INTER>
-1.52502

>  <SCORE.INTER.CONST>
1

>  <SCORE.INTER.POLAR>
0

>  <SCORE.INTER.ROT>
6

>  <SCORE.INTER.SOLV>
10.5641

>  <SCORE.INTER.VDW>
-12.1381

>  <SCORE.INTER.norm>
-0.0448535

>  <SCORE.INTRA>
3.41873

>  <SCORE.INTRA.DIHEDRAL>
-0.779321

>  <SCORE.INTRA.DIHEDRAL.0>
15.8194

>  <SCORE.INTRA.POLAR>
0

>  <SCORE.INTRA.POLAR.0>
0

>  <SCORE.INTRA.REPUL>
0

>  <SCORE.INTRA.REPUL.0>
0

>  <SCORE.INTRA.SOLV>
1.6717

>  <SCORE.INTRA.SOLV.lig_0>
-71.9159

>  <SCORE.INTRA.VDW>
2.97254

>  <SCORE.INTRA.VDW.0>
-3.53918

>  <SCORE.INTRA.norm>
0.100551

>  <SCORE.RESTR>
1.58622

>  <SCORE.RESTR.CAVITY>
1.58622

>  <SCORE.RESTR.norm>
0.0466536

>  <SCORE.SYSTEM>
0

>  <SCORE.SYSTEM.CONST>
0

>  <SCORE.SYSTEM.DIHEDRAL>
0

>  <SCORE.SYSTEM.SOLV>
0

>  <SCORE.SYSTEM.norm>
0

>  <SCORE.heavy>
34

>  <SCORE.norm>
0.102351

>  <RMSD>
8.568

$$$$
ligand
 OpenBabel01301917533D
libRbt.so/2013.1/901 2013/11/27
 34 36  0  0  0  0  0  0  0  0999 V2000
   18.9033   34.3372   34.4955 C   0  0  2  0  0  0  0  0  0  0  0  0
   18.1057   33.8227   33.4244 O   0  0  0  0  0  0  0  0  0  0  0  0
   15.6902   31.2040   35.8139 C   0  0  2  0  0  0  0  0  0  0  0  0
   14.6455   30.2596   36.2326 N   0  0  0  0  0  0  0  0  0  0  0  0
   16.5181   28.2295   35.8188 C   0  0  2  0  0  0  0  0  0  0  0  0
   19.4588   35.7446   34.0578 C   0  0  2  0  0  0  0  0  0  0  0  0
   18.3575   36.6708   33.7495 N   0  0  0  0  0  0  0  0  0  0  0  0
   14.9811   32.4359   35.1438 C   0  0  0  0  0  0  0  0  0  0  0  0
   17.4696   27.3565   36.7287 C   0  0  2  0  0  0  0  0  0  0  0  0
   17.8493   28.0840   37.8842 O   0  0  0  0  0  0  0  0  0  0  0  0
   20.3934   35.5930   32.8198 C   0  0  1  0  0  0  0  0  0  0  0  0
   20.9034   36.8773   32.4162 O   0  0  0  0  0  0  0  0  0  0  0  0
   16.0965   33.4527   34.7145 C   0  0  2  0  0  0  0  0  0  0  0  0
   15.4936   34.6501   34.0626 N   0  0  0  0  0  0  0  0  0  0  0  0
   18.7420   26.9729   35.8824 C   0  0  1  0  0  0  0  0  0  0  0  0
   19.6930   26.1832   36.6904 N   0  0  0  0  0  0  0  0  0  0  0  0
   21.5348   34.6161   33.1871 C   0  0  2  0  0  0  0  0  0  0  0  0
   22.4128   34.4722   32.0661 O   0  0  0  0  0  0  0  0  0  0  0  0
   17.0983   32.7905   33.7208 C   0  0  2  0  0  0  0  0  0  0  0  0
   18.2917   26.1622   34.6261 C   0  0  1  0  0  0  0  0  0  0  0  0
   17.6582   24.9655   35.0664 O   0  0  0  0  0  0  0  0  0  0  0  0
   20.8987   33.2234   33.6133 C   0  0  2  0  0  0  0  0  0  0  0  0
   19.9869   33.3953   34.7662 O   0  0  0  0  0  0  0  0  0  0  0  0
   17.7291   31.5397   34.3909 C   0  0  2  0  0  0  0  0  0  0  0  0
   18.6159   30.9360   33.4514 O   0  0  0  0  0  0  0  0  0  0  0  0
   17.2845   27.0266   33.8017 C   0  0  0  0  0  0  0  0  0  0  0  0
   16.1287   27.4452   34.6305 O   0  0  0  0  0  0  0  0  0  0  0  0
   21.9728   32.1693   34.0076 C   0  0  2  0  0  0  0  0  0  0  0  0
   21.3245   30.9370   34.3408 O   0  0  0  0  0  0  0  0  0  0  0  0
   16.6574   30.4901   34.7761 C   0  0  1  0  0  0  0  0  0  0  0  0
   17.3359   29.3746   35.4163 O   0  0  0  0  0  0  0  0  0  0  0  0
   22.7867   32.6039   35.2065 C   0  0  0  0  0  0  0  0  0  0  0  0
   19.4733   25.7680   33.7387 C   0  0  0  0  0  0  0  0  0  0  0  0
   20.8524   27.0579   36.9929 C   0  0  0  0  0  0  0  0  0  0  0  0
  1  2  1  6  0  0  0
  1  6  1  0  0  0  0
  1 23  1  0  0  0  0
  3  4  1  6  0  0  0
  3  8  1  0  0  0  0
  3 30  1  0  0  0  0
  5  9  1  0  0  0  0
  5 27  1  0  0  0  0
  5 31  1  6  0  0  0
  6  7  1  6  0  0  0
  6 11  1  0  0  0  0
  8 13  1  0  0  0  0
  9 10  1  1  0  0  0
  9 15  1  0  0  0  0
 11 12  1  1  0  0  0
 11 17  1  0  0  0  0
 13 14  1  6  0  0  0
 13 19  1  0  0  0  0
 15 16  1  1  0  0  0
 15 20  1  0  0  0  0
 16 34  1  0  0  0  0
 17 18  1  6  0  0  0
 17 22  1  0  0  0  0
 19  2  1  1  0  0  0
 19 24  1  0  0  0  0
 20 21  1  1  0  0  0
 20 26  1  0  0  0  0
 20 33  1  0  0  0  0
 22 23  1  1  0  0  0
 22 28  1  0  0  0  0
 24 25  1  6  0  0  0
 24 30  1  0  0  0  0
 26 27  1  0  0  0  0
 28 29  1  1  0  0  0
 28 32  1  0  0  0  0
 30 31  1  1  0  0  0
M  END
>  <CHROM.1>
-158.36606888,61.51741736,-107.72050667,-178.38928089,67.04024595,-168.58544223
18.60635415,31.05951291,34.63339397,1.32451644,0.14980283,-0.22781457

>  <Name>
ligand

>  <RI>
0

>  <Rbt.Current_Directory>
/home/itssahil/PROJECTS/Mol_Feturizer/New_Systems/rnas/4p3s

>  <Rbt.Executable>
rbdock ($Id: //depot/dev/client3/rdock/2013.1/src/exe/rbdock.cxx#4 $)

>  <Rbt.Library>
libRbt.so (2013.1, Build901 2013/11/27)

>  <Rbt.Parameter_File>
/export/apps/rDock/src/rDock_2013.1_src/data/scripts/dock_solv.prm

>  <Rbt.Receptor>
prm/pocket_docking_8.prm

>  <SCORE>
-10.165

>  <SCORE.INTER>
-5.9212

>  <SCORE.INTER.CONST>
1

>  <SCORE.INTER.POLAR>
0

>  <SCORE.INTER.ROT>
6

>  <SCORE.INTER.SOLV>
14.8137

>  <SCORE.INTER.VDW>
-16.4854

>  <SCORE.INTER.norm>
-0.174153

>  <SCORE.INTRA>
-4.24378

>  <SCORE.INTRA.DIHEDRAL>
-11.6695

>  <SCORE.INTRA.DIHEDRAL.0>
15.8194

>  <SCORE.INTRA.POLAR>
0

>  <SCORE.INTRA.POLAR.0>
0

>  <SCORE.INTRA.REPUL>
0

>  <SCORE.INTRA.REPUL.0>
0

>  <SCORE.INTRA.SOLV>
1.80895

>  <SCORE.INTRA.SOLV.lig_0>
-71.9159

>  <SCORE.INTRA.VDW>
0.686493

>  <SCORE.INTRA.VDW.0>
-3.53918

>  <SCORE.INTRA.norm>
-0.124817

>  <SCORE.RESTR>
0

>  <SCORE.RESTR.CAVITY>
0

>  <SCORE.RESTR.norm>
0

>  <SCORE.SYSTEM>
0

>  <SCORE.SYSTEM.CONST>
0

>  <SCORE.SYSTEM.DIHEDRAL>
0

>  <SCORE.SYSTEM.SOLV>
0

>  <SCORE.SYSTEM.norm>
0

>  <SCORE.heavy>
34

>  <SCORE.norm>
-0.29897

>  <RMSD>
8.568

$$$$
ligand
 OpenBabel01301917533D
libRbt.so/2013.1/901 2013/11/27
 34 36  0  0  0  0  0  0  0  0999 V2000
   22.7078   30.5894   36.3969 C   0  0  2  0  0  0  0  0  0  0  0  0
   21.4581   30.5361   37.0922 O   0  0  0  0  0  0  0  0  0  0  0  0
   20.6773   26.3752   36.3996 C   0  0  2  0  0  0  0  0  0  0  0  0
   20.0617   25.0419   36.4446 N   0  0  0  0  0  0  0  0  0  0  0  0
   18.0799   26.9185   33.8367 C   0  0  2  0  0  0  0  0  0  0  0  0
   23.6988   31.4753   37.2418 C   0  0  2  0  0  0  0  0  0  0  0  0
   23.8866   30.9136   38.5891 N   0  0  0  0  0  0  0  0  0  0  0  0
   20.9521   26.8257   37.8797 C   0  0  0  0  0  0  0  0  0  0  0  0
   17.5336   25.5404   34.3824 C   0  0  2  0  0  0  0  0  0  0  0  0
   17.5406   25.5345   35.7996 O   0  0  0  0  0  0  0  0  0  0  0  0
   23.1644   32.9361   37.3404 C   0  0  1  0  0  0  0  0  0  0  0  0
   24.0673   33.7494   38.1121 O   0  0  0  0  0  0  0  0  0  0  0  0
   21.6272   28.2414   37.8297 C   0  0  2  0  0  0  0  0  0  0  0  0
   21.9126   28.7366   39.2065 N   0  0  0  0  0  0  0  0  0  0  0  0
   18.4576   24.3914   33.8269 C   0  0  1  0  0  0  0  0  0  0  0  0
   18.0205   23.0743   34.3318 N   0  0  0  0  0  0  0  0  0  0  0  0
   22.9843   33.4873   35.9066 C   0  0  2  0  0  0  0  0  0  0  0  0
   22.5051   34.8340   35.9747 O   0  0  0  0  0  0  0  0  0  0  0  0
   20.7063   29.2701   37.1065 C   0  0  2  0  0  0  0  0  0  0  0  0
   18.4173   24.4162   32.2661 C   0  0  1  0  0  0  0  0  0  0  0  0
   17.0792   24.1693   31.8467 O   0  0  0  0  0  0  0  0  0  0  0  0
   21.9730   32.5466   35.1203 C   0  0  2  0  0  0  0  0  0  0  0  0
   22.4813   31.1576   35.0701 O   0  0  0  0  0  0  0  0  0  0  0  0
   20.4010   28.7603   35.6718 C   0  0  2  0  0  0  0  0  0  0  0  0
   19.5332   29.7021   35.0443 O   0  0  0  0  0  0  0  0  0  0  0  0
   18.8800   25.8243   31.7714 C   0  0  0  0  0  0  0  0  0  0  0  0
   18.0507   26.9025   32.3610 O   0  0  0  0  0  0  0  0  0  0  0  0
   21.7289   33.0184   33.6580 C   0  0  2  0  0  0  0  0  0  0  0  0
   22.9895   33.1888   33.0007 O   0  0  0  0  0  0  0  0  0  0  0  0
   19.6825   27.3885   35.6882 C   0  0  1  0  0  0  0  0  0  0  0  0
   19.4638   26.9833   34.3089 O   0  0  0  0  0  0  0  0  0  0  0  0
   20.9931   34.3389   33.5991 C   0  0  0  0  0  0  0  0  0  0  0  0
   19.3089   23.3384   31.6479 C   0  0  0  0  0  0  0  0  0  0  0  0
   19.2228   22.3745   34.8471 C   0  0  0  0  0  0  0  0  0  0  0  0
  1  2  1  1  0  0  0
  1  6  1  0  0  0  0
  1 23  1  0  0  0  0
  3  4  1  1  0  0  0
  3  8  1  0  0  0  0
  3 30  1  0  0  0  0
  5  9  1  0  0  0  0
  5 27  1  0  0  0  0
  5 31  1  6  0  0  0
  6  7  1  1  0  0  0
  6 11  1  0  0  0  0
  8 13  1  0  0  0  0
  9 10  1  1  0  0  0
  9 15  1  0  0  0  0
 11 12  1  1  0  0  0
 11 17  1  0  0  0  0
 13 14  1  1  0  0  0
 13 19  1  0  0  0  0
 15 16  1  1  0  0  0
 15 20  1  0  0  0  0
 16 34  1  0  0  0  0
 17 18  1  1  0  0  0
 17 22  1  0  0  0  0
 19  2  1  6  0  0  0
 19 24  1  0  0  0  0
 20 21  1  6  0  0  0
 20 26  1  0  0  0  0
 20 33  1  0  0  0  0
 22 23  1  6  0  0  0
 22 28  1  0  0  0  0
 24 25  1  1  0  0  0
 24 30  1  0  0  0  0
 26 27  1  0  0  0  0
 28 29  1  1  0  0  0
 28 32  1  0  0  0  0
 30 31  1  6  0  0  0
M  END
>  <CHROM.1>
-141.32369370,61.95532486,-131.44610333,52.49283169,131.35498839,-79.96383065
20.58599118,28.63292404,35.25195121,-0.46875014,1.04255888,2.40578841

>  <Name>
ligand

>  <RI>
0

>  <Rbt.Current_Directory>
/home/itssahil/PROJECTS/Mol_Feturizer/New_Systems/rnas/4p3s

>  <Rbt.Executable>
rbdock ($Id: //depot/dev/client3/rdock/2013.1/src/exe/rbdock.cxx#4 $)

>  <Rbt.Library>
libRbt.so (2013.1, Build901 2013/11/27)

>  <Rbt.Parameter_File>
/export/apps/rDock/src/rDock_2013.1_src/data/scripts/dock_solv.prm

>  <Rbt.Receptor>
prm/blind_docking_80.prm

>  <SCORE>
1.40756

>  <SCORE.INTER>
-4.72601

>  <SCORE.INTER.CONST>
1

>  <SCORE.INTER.POLAR>
0

>  <SCORE.INTER.ROT>
6

>  <SCORE.INTER.SOLV>
17.3352

>  <SCORE.INTER.VDW>
-16.5291

>  <SCORE.INTER.norm>
-0.139

>  <SCORE.INTRA>
3.29957

>  <SCORE.INTRA.DIHEDRAL>
-0.982727

>  <SCORE.INTRA.DIHEDRAL.0>
15.8194

>  <SCORE.INTRA.POLAR>
0

>  <SCORE.INTRA.POLAR.0>
0

>  <SCORE.INTRA.REPUL>
0

>  <SCORE.INTRA.REPUL.0>
0

>  <SCORE.INTRA.SOLV>
5.79261

>  <SCORE.INTRA.SOLV.lig_0>
-71.9159

>  <SCORE.INTRA.VDW>
0.894633

>  <SCORE.INTRA.VDW.0>
-3.53918

>  <SCORE.INTRA.norm>
0.0970463

>  <SCORE.RESTR>
2.83399

>  <SCORE.RESTR.CAVITY>
2.83399

>  <SCORE.RESTR.norm>
0.0833527

>  <SCORE.SYSTEM>
0

>  <SCORE.SYSTEM.CONST>
0

>  <SCORE.SYSTEM.DIHEDRAL>
0

>  <SCORE.SYSTEM.SOLV>
0

>  <SCORE.SYSTEM.norm>
0

>  <SCORE.heavy>
34

>  <SCORE.norm>
0.0413988

>  <RMSD>
8.570

$$$$
ligand
 OpenBabel01301917533D
libRbt.so/2013.1/901 2013/11/27
 34 36  0  0  0  0  0  0  0  0999 V2000
   20.2252   35.1828   30.9190 C   0  0  2  0  0  0  0  0  0  0  0  0
   20.8150   34.1008   30.1913 O   0  0  0  0  0  0  0  0  0  0  0  0
   20.4748   30.9977   33.1336 C   0  0  2  0  0  0  0  0  0  0  0  0
   20.6633   29.7367   33.8637 N   0  0  0  0  0  0  0  0  0  0  0  0
   23.4344   32.8638   34.7675 C   0  0  2  0  0  0  0  0  0  0  0  0
   18.9863   35.7048   30.0984 C   0  0  2  0  0  0  0  0  0  0  0  0
   18.0022   34.6300   29.8930 N   0  0  0  0  0  0  0  0  0  0  0  0
   20.0870   30.6403   31.6534 C   0  0  0  0  0  0  0  0  0  0  0  0
   23.9625   32.2701   36.1327 C   0  0  2  0  0  0  0  0  0  0  0  0
   24.1925   30.8773   36.0076 O   0  0  0  0  0  0  0  0  0  0  0  0
   19.4520   36.2742   28.7244 C   0  0  1  0  0  0  0  0  0  0  0  0
   18.3225   36.7524   27.9708 O   0  0  0  0  0  0  0  0  0  0  0  0
   19.8671   31.9875   30.8795 C   0  0  2  0  0  0  0  0  0  0  0  0
   19.5002   31.7239   29.4588 N   0  0  0  0  0  0  0  0  0  0  0  0
   22.8774   32.5470   37.2409 C   0  0  1  0  0  0  0  0  0  0  0  0
   23.2957   31.9823   38.5398 N   0  0  0  0  0  0  0  0  0  0  0  0
   20.4805   37.3993   28.9860 C   0  0  2  0  0  0  0  0  0  0  0  0
   20.9125   37.9449   27.7356 O   0  0  0  0  0  0  0  0  0  0  0  0
   21.1564   32.8626   30.9114 C   0  0  2  0  0  0  0  0  0  0  0  0
   22.6574   34.0881   37.3635 C   0  0  1  0  0  0  0  0  0  0  0  0
   23.8848   34.6871   37.7662 O   0  0  0  0  0  0  0  0  0  0  0  0
   21.6975   36.7977   29.8124 C   0  0  2  0  0  0  0  0  0  0  0  0
   21.2288   36.2298   31.0961 O   0  0  0  0  0  0  0  0  0  0  0  0
   21.5479   33.1396   32.3884 C   0  0  2  0  0  0  0  0  0  0  0  0
   22.7455   33.9138   32.3896 O   0  0  0  0  0  0  0  0  0  0  0  0
   22.2222   34.6483   35.9713 C   0  0  0  0  0  0  0  0  0  0  0  0
   23.2149   34.3154   34.9216 O   0  0  0  0  0  0  0  0  0  0  0  0
   22.7890   37.8596   30.1308 C   0  0  2  0  0  0  0  0  0  0  0  0
   22.1588   39.0625   30.5846 O   0  0  0  0  0  0  0  0  0  0  0  0
   21.8272   31.8297   33.1659 C   0  0  1  0  0  0  0  0  0  0  0  0
   22.1576   32.1867   34.5364 O   0  0  0  0  0  0  0  0  0  0  0  0
   23.6234   38.2031   28.9165 C   0  0  0  0  0  0  0  0  0  0  0  0
   21.5988   34.4393   38.4098 C   0  0  0  0  0  0  0  0  0  0  0  0
   22.9850   30.5320   38.5146 C   0  0  0  0  0  0  0  0  0  0  0  0
  1  2  1  6  0  0  0
  1  6  1  0  0  0  0
  1 23  1  0  0  0  0
  3  4  1  1  0  0  0
  3  8  1  0  0  0  0
  3 30  1  0  0  0  0
  5  9  1  0  0  0  0
  5 27  1  0  0  0  0
  5 31  1  1  0  0  0
  6  7  1  6  0  0  0
  6 11  1  0  0  0  0
  8 13  1  0  0  0  0
  9 10  1  6  0  0  0
  9 15  1  0  0  0  0
 11 12  1  1  0  0  0
 11 17  1  0  0  0  0
 13 14  1  6  0  0  0
 13 19  1  0  0  0  0
 15 16  1  1  0  0  0
 15 20  1  0  0  0  0
 16 34  1  0  0  0  0
 17 18  1  6  0  0  0
 17 22  1  0  0  0  0
 19  2  1  6  0  0  0
 19 24  1  0  0  0  0
 20 21  1  1  0  0  0
 20 26  1  0  0  0  0
 20 33  1  0  0  0  0
 22 23  1  1  0  0  0
 22 28  1  0  0  0  0
 24 25  1  6  0  0  0
 24 30  1  0  0  0  0
 26 27  1  0  0  0  0
 28 29  1  6  0  0  0
 28 32  1  0  0  0  0
 30 31  1  1  0  0  0
M  END
>  <CHROM.1>
-132.85138370,87.51926514,-80.55616225,44.89799469,175.09123472,-142.50659800
21.58599935,34.10989112,32.74005034,2.08551365,-1.00032914,-0.61938072

>  <Name>
ligand

>  <RI>
0

>  <Rbt.Current_Directory>
/home/itssahil/PROJECTS/Mol_Feturizer/New_Systems/rnas/4p3s

>  <Rbt.Executable>
rbdock ($Id: //depot/dev/client3/rdock/2013.1/src/exe/rbdock.cxx#4 $)

>  <Rbt.Library>
libRbt.so (2013.1, Build901 2013/11/27)

>  <Rbt.Parameter_File>
/export/apps/rDock/src/rDock_2013.1_src/data/scripts/dock_solv.prm

>  <Rbt.Receptor>
prm/blind_docking_100.prm

>  <SCORE>
3.61341

>  <SCORE.INTER>
-1.64699

>  <SCORE.INTER.CONST>
1

>  <SCORE.INTER.POLAR>
0

>  <SCORE.INTER.ROT>
6

>  <SCORE.INTER.SOLV>
12.2989

>  <SCORE.INTER.VDW>
-12.7976

>  <SCORE.INTER.norm>
-0.0484408

>  <SCORE.INTRA>
3.43831

>  <SCORE.INTRA.DIHEDRAL>
-0.0169849

>  <SCORE.INTRA.DIHEDRAL.0>
15.8194

>  <SCORE.INTRA.POLAR>
0

>  <SCORE.INTRA.POLAR.0>
0

>  <SCORE.INTRA.REPUL>
0

>  <SCORE.INTRA.REPUL.0>
0

>  <SCORE.INTRA.SOLV>
0.930175

>  <SCORE.INTRA.SOLV.lig_0>
-71.9159

>  <SCORE.INTRA.VDW>
2.98171

>  <SCORE.INTRA.VDW.0>
-3.53918

>  <SCORE.INTRA.norm>
0.101127

>  <SCORE.RESTR>
1.82209

>  <SCORE.RESTR.CAVITY>
1.82209

>  <SCORE.RESTR.norm>
0.053591

>  <SCORE.SYSTEM>
0

>  <SCORE.SYSTEM.CONST>
0

>  <SCORE.SYSTEM.DIHEDRAL>
0

>  <SCORE.SYSTEM.SOLV>
0

>  <SCORE.SYSTEM.norm>
0

>  <SCORE.heavy>
34

>  <SCORE.norm>
0.106277

>  <RMSD>
8.579

$$$$
ligand
 OpenBabel01301917533D
libRbt.so/2013.1/901 2013/11/27
 34 36  0  0  0  0  0  0  0  0999 V2000
   20.6857   35.5415   29.1999 C   0  0  2  0  0  0  0  0  0  0  0  0
   21.7377   35.3644   30.1539 O   0  0  0  0  0  0  0  0  0  0  0  0
   20.8708   31.6306   32.0799 C   0  0  2  0  0  0  0  0  0  0  0  0
   20.9831   30.2478   32.5633 N   0  0  0  0  0  0  0  0  0  0  0  0
   22.7029   31.8455   35.0691 C   0  0  2  0  0  0  0  0  0  0  0  0
   20.6896   37.0489   28.7434 C   0  0  2  0  0  0  0  0  0  0  0  0
   21.9857   37.4141   28.1494 N   0  0  0  0  0  0  0  0  0  0  0  0
   21.0838   31.6122   30.5232 C   0  0  0  0  0  0  0  0  0  0  0  0
   22.1001   31.9606   36.5246 C   0  0  2  0  0  0  0  0  0  0  0  0
   20.8396   31.3158   36.5877 O   0  0  0  0  0  0  0  0  0  0  0  0
   20.3744   37.9787   29.9538 C   0  0  1  0  0  0  0  0  0  0  0  0
   20.3771   39.3578   29.5410 O   0  0  0  0  0  0  0  0  0  0  0  0
   20.9445   33.0869   30.0053 C   0  0  2  0  0  0  0  0  0  0  0  0
   21.1417   33.1465   28.5289 N   0  0  0  0  0  0  0  0  0  0  0  0
   21.9495   33.4894   36.8742 C   0  0  1  0  0  0  0  0  0  0  0  0
   21.3545   33.6668   38.2141 N   0  0  0  0  0  0  0  0  0  0  0  0
   19.0069   37.5632   30.5449 C   0  0  2  0  0  0  0  0  0  0  0  0
   18.6923   38.4138   31.6519 O   0  0  0  0  0  0  0  0  0  0  0  0
   21.9914   34.0167   30.6900 C   0  0  2  0  0  0  0  0  0  0  0  0
   23.3549   34.1668   36.8093 C   0  0  1  0  0  0  0  0  0  0  0  0
   24.1941   33.5558   37.7839 O   0  0  0  0  0  0  0  0  0  0  0  0
   19.0817   36.0374   30.9835 C   0  0  2  0  0  0  0  0  0  0  0  0
   19.4181   35.1763   29.8279 O   0  0  0  0  0  0  0  0  0  0  0  0
   21.7952   33.9582   32.2293 C   0  0  2  0  0  0  0  0  0  0  0  0
   22.7835   34.7912   32.8320 O   0  0  0  0  0  0  0  0  0  0  0  0
   23.9529   33.9533   35.3816 C   0  0  0  0  0  0  0  0  0  0  0  0
   24.0187   32.5135   35.0342 O   0  0  0  0  0  0  0  0  0  0  0  0
   17.7449   35.5217   31.5896 C   0  0  2  0  0  0  0  0  0  0  0  0
   17.9042   34.1563   31.9903 O   0  0  0  0  0  0  0  0  0  0  0  0
   21.9825   32.5230   32.7801 C   0  0  1  0  0  0  0  0  0  0  0  0
   21.7548   32.5632   34.2158 O   0  0  0  0  0  0  0  0  0  0  0  0
   16.6058   35.5832   30.5960 C   0  0  0  0  0  0  0  0  0  0  0  0
   23.2900   35.6632   37.1182 C   0  0  0  0  0  0  0  0  0  0  0  0
   20.4320   34.8262   38.1408 C   0  0  0  0  0  0  0  0  0  0  0  0
  1  2  1  1  0  0  0
  1  6  1  0  0  0  0
  1 23  1  0  0  0  0
  3  4  1  1  0  0  0
  3  8  1  0  0  0  0
  3 30  1  0  0  0  0
  5  9  1  0  0  0  0
  5 27  1  0  0  0  0
  5 31  1  6  0  0  0
  6  7  1  1  0  0  0
  6 11  1  0  0  0  0
  8 13  1  0  0  0  0
  9 10  1  6  0  0  0
  9 15  1  0  0  0  0
 11 12  1  6  0  0  0
 11 17  1  0  0  0  0
 13 14  1  6  0  0  0
 13 19  1  0  0  0  0
 15 16  1  1  0  0  0
 15 20  1  0  0  0  0
 16 34  1  0  0  0  0
 17 18  1  1  0  0  0
 17 22  1  0  0  0  0
 19  2  1  6  0  0  0
 19 24  1  0  0  0  0
 20 21  1  1  0  0  0
 20 26  1  0  0  0  0
 20 33  1  0  0  0  0
 22 23  1  6  0  0  0
 22 28  1  0  0  0  0
 24 25  1  1  0  0  0
 24 30  1  0  0  0  0
 26 27  1  0  0  0  0
 28 29  1  6  0  0  0
 28 32  1  0  0  0  0
 30 31  1  1  0  0  0
M  END
>  <CHROM.1>
-176.97097741,-0.15426242,-141.75906728,-178.48499923,109.44385706,-174.41905507
21.10686682,34.42154927,32.76404553,-2.80368991,-1.21232383,0.81730593

>  <Name>
ligand

>  <RI>
0

>  <Rbt.Current_Directory>
/home/itssahil/PROJECTS/Mol_Feturizer/New_Systems/rnas/4p3s

>  <Rbt.Executable>
rbdock ($Id: //depot/dev/client3/rdock/2013.1/src/exe/rbdock.cxx#4 $)

>  <Rbt.Library>
libRbt.so (2013.1, Build901 2013/11/27)

>  <Rbt.Parameter_File>
/export/apps/rDock/src/rDock_2013.1_src/data/scripts/dock_solv.prm

>  <Rbt.Receptor>
prm/blind_docking_100.prm

>  <SCORE>
10.2347

>  <SCORE.INTER>
-0.392376

>  <SCORE.INTER.CONST>
1

>  <SCORE.INTER.POLAR>
0

>  <SCORE.INTER.ROT>
6

>  <SCORE.INTER.SOLV>
11.4131

>  <SCORE.INTER.VDW>
-11.666

>  <SCORE.INTER.norm>
-0.0115405

>  <SCORE.INTRA>
7.23685

>  <SCORE.INTRA.DIHEDRAL>
-0.916771

>  <SCORE.INTRA.DIHEDRAL.0>
15.8194

>  <SCORE.INTRA.POLAR>
0

>  <SCORE.INTRA.POLAR.0>
0

>  <SCORE.INTRA.REPUL>
0

>  <SCORE.INTRA.REPUL.0>
0

>  <SCORE.INTRA.SOLV>
0.873582

>  <SCORE.INTRA.SOLV.lig_0>
-71.9159

>  <SCORE.INTRA.VDW>
7.25844

>  <SCORE.INTRA.VDW.0>
-3.53918

>  <SCORE.INTRA.norm>
0.212848

>  <SCORE.RESTR>
3.39026

>  <SCORE.RESTR.CAVITY>
3.39026

>  <SCORE.RESTR.norm>
0.0997137

>  <SCORE.SYSTEM>
0

>  <SCORE.SYSTEM.CONST>
0

>  <SCORE.SYSTEM.DIHEDRAL>
0

>  <SCORE.SYSTEM.SOLV>
0

>  <SCORE.SYSTEM.norm>
0

>  <SCORE.heavy>
34

>  <SCORE.norm>
0.301022

>  <RMSD>
8.580

$$$$
ligand
 OpenBabel01301917533D
libRbt.so/2013.1/901 2013/11/27
 34 36  0  0  0  0  0  0  0  0999 V2000
   22.6586   30.5403   36.3256 C   0  0  2  0  0  0  0  0  0  0  0  0
   21.4188   30.4915   37.0388 O   0  0  0  0  0  0  0  0  0  0  0  0
   20.5865   26.3433   36.3300 C   0  0  2  0  0  0  0  0  0  0  0  0
   19.9482   25.0204   36.3610 N   0  0  0  0  0  0  0  0  0  0  0  0
   18.0577   26.8716   33.7216 C   0  0  2  0  0  0  0  0  0  0  0  0
   23.6748   31.3963   37.1714 C   0  0  2  0  0  0  0  0  0  0  0  0
   23.8748   30.8068   38.5050 N   0  0  0  0  0  0  0  0  0  0  0  0
   20.8331   26.7907   37.8160 C   0  0  0  0  0  0  0  0  0  0  0  0
   17.5230   25.5014   34.2980 C   0  0  2  0  0  0  0  0  0  0  0  0
   17.5105   25.5348   35.7148 O   0  0  0  0  0  0  0  0  0  0  0  0
   23.1628   32.8622   37.3053 C   0  0  1  0  0  0  0  0  0  0  0  0
   24.0887   33.6483   38.0781 O   0  0  0  0  0  0  0  0  0  0  0  0
   21.5324   28.1950   37.7815 C   0  0  2  0  0  0  0  0  0  0  0  0
   21.7927   28.6868   39.1645 N   0  0  0  0  0  0  0  0  0  0  0  0
   18.4705   24.3509   33.7872 C   0  0  1  0  0  0  0  0  0  0  0  0
   18.0449   23.0421   34.3226 N   0  0  0  0  0  0  0  0  0  0  0  0
   22.9690   33.4428   35.8849 C   0  0  2  0  0  0  0  0  0  0  0  0
   22.5101   34.7946   35.9854 O   0  0  0  0  0  0  0  0  0  0  0  0
   20.6462   29.2380   37.0358 C   0  0  2  0  0  0  0  0  0  0  0  0
   18.4516   24.3320   32.2259 C   0  0  1  0  0  0  0  0  0  0  0  0
   17.1230   24.0545   31.7955 O   0  0  0  0  0  0  0  0  0  0  0  0
   21.9326   32.5312   35.0969 C   0  0  2  0  0  0  0  0  0  0  0  0
   22.4203   31.1365   35.0132 O   0  0  0  0  0  0  0  0  0  0  0  0
   20.3672   28.7319   35.5944 C   0  0  2  0  0  0  0  0  0  0  0  0
   19.5302   29.6872   34.9458 O   0  0  0  0  0  0  0  0  0  0  0  0
   18.9015   25.7324   31.6985 C   0  0  0  0  0  0  0  0  0  0  0  0
   18.0491   26.8145   32.2467 O   0  0  0  0  0  0  0  0  0  0  0  0
   21.6733   33.0338   33.6476 C   0  0  2  0  0  0  0  0  0  0  0  0
   22.9235   33.1588   32.9609 O   0  0  0  0  0  0  0  0  0  0  0  0
   19.6259   27.3722   35.5944 C   0  0  1  0  0  0  0  0  0  0  0  0
   19.4338   26.9692   34.2104 O   0  0  0  0  0  0  0  0  0  0  0  0
   20.9945   34.3855   33.6245 C   0  0  0  0  0  0  0  0  0  0  0  0
   19.3666   23.2504   31.6500 C   0  0  0  0  0  0  0  0  0  0  0  0
   19.2536   22.3639   34.8515 C   0  0  0  0  0  0  0  0  0  0  0  0
  1  2  1  1  0  0  0
  1  6  1  0  0  0  0
  1 23  1  0  0  0  0
  3  4  1  1  0  0  0
  3  8  1  0  0  0  0
  3 30  1  0  0  0  0
  5  9  1  0  0  0  0
  5 27  1  0  0  0  0
  5 31  1  1  0  0  0
  6  7  1  1  0  0  0
  6 11  1  0  0  0  0
  8 13  1  0  0  0  0
  9 10  1  1  0  0  0
  9 15  1  0  0  0  0
 11 12  1  1  0  0  0
 11 17  1  0  0  0  0
 13 14  1  1  0  0  0
 13 19  1  0  0  0  0
 15 16  1  1  0  0  0
 15 20  1  0  0  0  0
 16 34  1  0  0  0  0
 17 18  1  1  0  0  0
 17 22  1  0  0  0  0
 19  2  1  6  0  0  0
 19 24  1  0  0  0  0
 20 21  1  6  0  0  0
 20 26  1  0  0  0  0
 20 33  1  0  0  0  0
 22 23  1  6  0  0  0
 22 28  1  0  0  0  0
 24 25  1  1  0  0  0
 24 30  1  0  0  0  0
 26 27  1  0  0  0  0
 28 29  1  6  0  0  0
 28 32  1  0  0  0  0
 30 31  1  6  0  0  0
M  END
>  <CHROM.1>
-141.61449096,64.59565549,-132.43272665,54.28556924,128.81399646,-77.94586329
20.56049321,28.58972939,35.19872671,-0.46574906,1.04865977,2.40092020

>  <Name>
ligand

>  <RI>
0

>  <Rbt.Current_Directory>
/home/itssahil/PROJECTS/Mol_Feturizer/New_Systems/rnas/4p3s

>  <Rbt.Executable>
rbdock ($Id: //depot/dev/client3/rdock/2013.1/src/exe/rbdock.cxx#4 $)

>  <Rbt.Library>
libRbt.so (2013.1, Build901 2013/11/27)

>  <Rbt.Parameter_File>
/export/apps/rDock/src/rDock_2013.1_src/data/scripts/dock_solv.prm

>  <Rbt.Receptor>
prm/blind_docking_80.prm

>  <SCORE>
0.952521

>  <SCORE.INTER>
-5.75701

>  <SCORE.INTER.CONST>
1

>  <SCORE.INTER.POLAR>
0

>  <SCORE.INTER.ROT>
6

>  <SCORE.INTER.SOLV>
17.2323

>  <SCORE.INTER.VDW>
-17.1821

>  <SCORE.INTER.norm>
-0.169324

>  <SCORE.INTRA>
3.80671

>  <SCORE.INTRA.DIHEDRAL>
-1.12769

>  <SCORE.INTRA.DIHEDRAL.0>
15.8194

>  <SCORE.INTRA.POLAR>
0

>  <SCORE.INTRA.POLAR.0>
0

>  <SCORE.INTRA.REPUL>
0

>  <SCORE.INTRA.REPUL.0>
0

>  <SCORE.INTRA.SOLV>
6.02308

>  <SCORE.INTRA.SOLV.lig_0>
-71.9159

>  <SCORE.INTRA.VDW>
1.35902

>  <SCORE.INTRA.VDW.0>
-3.53918

>  <SCORE.INTRA.norm>
0.111962

>  <SCORE.RESTR>
2.90282

>  <SCORE.RESTR.CAVITY>
2.90282

>  <SCORE.RESTR.norm>
0.085377

>  <SCORE.SYSTEM>
0

>  <SCORE.SYSTEM.CONST>
0

>  <SCORE.SYSTEM.DIHEDRAL>
0

>  <SCORE.SYSTEM.SOLV>
0

>  <SCORE.SYSTEM.norm>
0

>  <SCORE.heavy>
34

>  <SCORE.norm>
0.0280153

>  <RMSD>
8.586

$$$$
ligand
 OpenBabel01301917533D
libRbt.so/2013.1/901 2013/11/27
 34 36  0  0  0  0  0  0  0  0999 V2000
   21.0573   34.1798   29.9209 C   0  0  2  0  0  0  0  0  0  0  0  0
   22.3668   33.8234   30.3752 O   0  0  0  0  0  0  0  0  0  0  0  0
   21.1822   31.7559   33.9423 C   0  0  2  0  0  0  0  0  0  0  0  0
   21.1660   30.8238   35.0779 N   0  0  0  0  0  0  0  0  0  0  0  0
   23.4030   34.2884   35.7978 C   0  0  2  0  0  0  0  0  0  0  0  0
   21.1383   34.4650   28.3740 C   0  0  2  0  0  0  0  0  0  0  0  0
   21.6276   33.2824   27.6473 N   0  0  0  0  0  0  0  0  0  0  0  0
   21.3371   30.9073   32.6289 C   0  0  0  0  0  0  0  0  0  0  0  0
   24.1223   33.2732   36.7712 C   0  0  2  0  0  0  0  0  0  0  0  0
   24.5565   32.1292   36.0560 O   0  0  0  0  0  0  0  0  0  0  0  0
   22.0686   35.6849   28.0995 C   0  0  1  0  0  0  0  0  0  0  0  0
   22.1456   35.9490   26.6865 O   0  0  0  0  0  0  0  0  0  0  0  0
   21.3348   31.9021   31.4154 C   0  0  2  0  0  0  0  0  0  0  0  0
   21.4851   31.1631   30.1294 N   0  0  0  0  0  0  0  0  0  0  0  0
   23.0970   32.8590   37.8935 C   0  0  1  0  0  0  0  0  0  0  0  0
   23.6985   31.8787   38.8198 N   0  0  0  0  0  0  0  0  0  0  0  0
   21.5182   36.9028   28.8780 C   0  0  2  0  0  0  0  0  0  0  0  0
   22.3524   38.0388   28.6295 O   0  0  0  0  0  0  0  0  0  0  0  0
   22.4968   32.9333   31.5410 C   0  0  2  0  0  0  0  0  0  0  0  0
   22.6493   34.1375   38.6702 C   0  0  1  0  0  0  0  0  0  0  0  0
   23.7958   34.7127   39.2885 O   0  0  0  0  0  0  0  0  0  0  0  0
   21.4692   36.5413   30.4249 C   0  0  2  0  0  0  0  0  0  0  0  0
   20.6108   35.3589   30.6593 O   0  0  0  0  0  0  0  0  0  0  0  0
   22.3499   33.7059   32.8800 C   0  0  2  0  0  0  0  0  0  0  0  0
   23.4406   34.6187   32.9846 O   0  0  0  0  0  0  0  0  0  0  0  0
   22.0247   35.1506   37.6578 C   0  0  0  0  0  0  0  0  0  0  0  0
   22.9723   35.4739   36.5644 O   0  0  0  0  0  0  0  0  0  0  0  0
   20.9220   37.7083   31.2961 C   0  0  2  0  0  0  0  0  0  0  0  0
   21.7348   38.8696   31.0935 O   0  0  0  0  0  0  0  0  0  0  0  0
   22.4051   32.7565   34.1023 C   0  0  1  0  0  0  0  0  0  0  0  0
   22.2336   33.5621   35.3007 O   0  0  0  0  0  0  0  0  0  0  0  0
   20.9447   37.3785   32.7724 C   0  0  0  0  0  0  0  0  0  0  0  0
   21.6338   33.8202   39.7688 C   0  0  0  0  0  0  0  0  0  0  0  0
   23.6816   30.5589   38.1425 C   0  0  0  0  0  0  0  0  0  0  0  0
  1  2  1  1  0  0  0
  1  6  1  0  0  0  0
  1 23  1  0  0  0  0
  3  4  1  1  0  0  0
  3  8  1  0  0  0  0
  3 30  1  0  0  0  0
  5  9  1  0  0  0  0
  5 27  1  0  0  0  0
  5 31  1  1  0  0  0
  6  7  1  6  0  0  0
  6 11  1  0  0  0  0
  8 13  1  0  0  0  0
  9 10  1  6  0  0  0
  9 15  1  0  0  0  0
 11 12  1  6  0  0  0
 11 17  1  0  0  0  0
 13 14  1  6  0  0  0
 13 19  1  0  0  0  0
 15 16  1  1  0  0  0
 15 20  1  0  0  0  0
 16 34  1  0  0  0  0
 17 18  1  1  0  0  0
 17 22  1  0  0  0  0
 19  2  1  6  0  0  0
 19 24  1  0  0  0  0
 20 21  1  1  0  0  0
 20 26  1  0  0  0  0
 20 33  1  0  0  0  0
 22 23  1  6  0  0  0
 22 28  1  0  0  0  0
 24 25  1  1  0  0  0
 24 30  1  0  0  0  0
 26 27  1  0  0  0  0
 28 29  1  1  0  0  0
 28 32  1  0  0  0  0
 30 31  1  1  0  0  0
M  END
>  <CHROM.1>
-151.66243519,37.00554397,-77.64629069,-57.61648360,164.73657315,-88.72973812
22.22573646,34.17755877,33.25384965,2.95445460,-1.41518732,0.09737103

>  <Name>
ligand

>  <RI>
0

>  <Rbt.Current_Directory>
/home/itssahil/PROJECTS/Mol_Feturizer/New_Systems/rnas/4p3s

>  <Rbt.Executable>
rbdock ($Id: //depot/dev/client3/rdock/2013.1/src/exe/rbdock.cxx#4 $)

>  <Rbt.Library>
libRbt.so (2013.1, Build901 2013/11/27)

>  <Rbt.Parameter_File>
/export/apps/rDock/src/rDock_2013.1_src/data/scripts/dock_solv.prm

>  <Rbt.Receptor>
prm/blind_docking_100.prm

>  <SCORE>
-0.983016

>  <SCORE.INTER>
-4.62223

>  <SCORE.INTER.CONST>
1

>  <SCORE.INTER.POLAR>
0

>  <SCORE.INTER.ROT>
6

>  <SCORE.INTER.SOLV>
13.0989

>  <SCORE.INTER.VDW>
-15.0478

>  <SCORE.INTER.norm>
-0.135948

>  <SCORE.INTRA>
1.36499

>  <SCORE.INTRA.DIHEDRAL>
-5.44195

>  <SCORE.INTRA.DIHEDRAL.0>
15.8194

>  <SCORE.INTRA.POLAR>
0

>  <SCORE.INTRA.POLAR.0>
0

>  <SCORE.INTRA.REPUL>
0

>  <SCORE.INTRA.REPUL.0>
0

>  <SCORE.INTRA.SOLV>
2.54244

>  <SCORE.INTRA.SOLV.lig_0>
-71.9159

>  <SCORE.INTRA.VDW>
2.81475

>  <SCORE.INTRA.VDW.0>
-3.53918

>  <SCORE.INTRA.norm>
0.0401467

>  <SCORE.RESTR>
2.27423

>  <SCORE.RESTR.CAVITY>
2.27423

>  <SCORE.RESTR.norm>
0.066889

>  <SCORE.SYSTEM>
0

>  <SCORE.SYSTEM.CONST>
0

>  <SCORE.SYSTEM.DIHEDRAL>
0

>  <SCORE.SYSTEM.SOLV>
0

>  <SCORE.SYSTEM.norm>
0

>  <SCORE.heavy>
34

>  <SCORE.norm>
-0.0289122

>  <RMSD>
8.588

$$$$
ligand
 OpenBabel01301917533D
libRbt.so/2013.1/901 2013/11/27
 34 36  0  0  0  0  0  0  0  0999 V2000
   20.5198   32.5479   36.8538 C   0  0  2  0  0  0  0  0  0  0  0  0
   20.8557   31.9751   38.1216 O   0  0  0  0  0  0  0  0  0  0  0  0
   21.0256   27.7993   37.1541 C   0  0  2  0  0  0  0  0  0  0  0  0
   20.9950   26.3350   37.2703 N   0  0  0  0  0  0  0  0  0  0  0  0
   18.8070   28.3969   35.0714 C   0  0  2  0  0  0  0  0  0  0  0  0
   21.8313   32.6107   35.9839 C   0  0  2  0  0  0  0  0  0  0  0  0
   22.4056   31.2678   35.8025 N   0  0  0  0  0  0  0  0  0  0  0  0
   22.0533   28.3418   38.2118 C   0  0  0  0  0  0  0  0  0  0  0  0
   17.4868   27.9606   34.3217 C   0  0  2  0  0  0  0  0  0  0  0  0
   16.3582   28.5862   34.9078 O   0  0  0  0  0  0  0  0  0  0  0  0
   22.8762   33.5540   36.6528 C   0  0  1  0  0  0  0  0  0  0  0  0
   24.0769   33.6142   35.8609 O   0  0  0  0  0  0  0  0  0  0  0  0
   22.0997   29.9042   38.0738 C   0  0  2  0  0  0  0  0  0  0  0  0
   23.0552   30.4907   39.0564 N   0  0  0  0  0  0  0  0  0  0  0  0
   17.3581   26.3937   34.4258 C   0  0  1  0  0  0  0  0  0  0  0  0
   16.1199   25.9229   33.7731 N   0  0  0  0  0  0  0  0  0  0  0  0
   22.2343   34.9509   36.8221 C   0  0  2  0  0  0  0  0  0  0  0  0
   23.1828   35.8371   37.4244 O   0  0  0  0  0  0  0  0  0  0  0  0
   20.6898   30.5244   38.3124 C   0  0  2  0  0  0  0  0  0  0  0  0
   18.6079   25.7354   33.7604 C   0  0  1  0  0  0  0  0  0  0  0  0
   18.6301   26.1015   32.3845 O   0  0  0  0  0  0  0  0  0  0  0  0
   20.9237   34.8072   37.7097 C   0  0  2  0  0  0  0  0  0  0  0  0
   19.9609   33.8795   37.0753 O   0  0  0  0  0  0  0  0  0  0  0  0
   19.6868   29.9164   37.2946 C   0  0  2  0  0  0  0  0  0  0  0  0
   18.4010   30.4759   37.5544 O   0  0  0  0  0  0  0  0  0  0  0  0
   19.8952   26.2613   34.4729 C   0  0  0  0  0  0  0  0  0  0  0  0
   19.9663   27.7417   34.4346 O   0  0  0  0  0  0  0  0  0  0  0  0
   20.1999   36.1660   37.9342 C   0  0  2  0  0  0  0  0  0  0  0  0
   19.0330   35.9520   38.7359 O   0  0  0  0  0  0  0  0  0  0  0  0
   19.5756   28.3789   37.4434 C   0  0  1  0  0  0  0  0  0  0  0  0
   18.6402   27.9003   36.4380 O   0  0  0  0  0  0  0  0  0  0  0  0
   19.7588   36.8001   36.6334 C   0  0  0  0  0  0  0  0  0  0  0  0
   18.5674   24.2086   33.8387 C   0  0  0  0  0  0  0  0  0  0  0  0
   15.1760   25.5241   34.8458 C   0  0  0  0  0  0  0  0  0  0  0  0
  1  2  1  1  0  0  0
  1  6  1  0  0  0  0
  1 23  1  0  0  0  0
  3  4  1  1  0  0  0
  3  8  1  0  0  0  0
  3 30  1  0  0  0  0
  5  9  1  0  0  0  0
  5 27  1  0  0  0  0
  5 31  1  1  0  0  0
  6  7  1  1  0  0  0
  6 11  1  0  0  0  0
  8 13  1  0  0  0  0
  9 10  1  1  0  0  0
  9 15  1  0  0  0  0
 11 12  1  6  0  0  0
 11 17  1  0  0  0  0
 13 14  1  1  0  0  0
 13 19  1  0  0  0  0
 15 16  1  6  0  0  0
 15 20  1  0  0  0  0
 16 34  1  0  0  0  0
 17 18  1  1  0  0  0
 17 22  1  0  0  0  0
 19  2  1  6  0  0  0
 19 24  1  0  0  0  0
 20 21  1  6  0  0  0
 20 26  1  0  0  0  0
 20 33  1  0  0  0  0
 22 23  1  6  0  0  0
 22 28  1  0  0  0  0
 24 25  1  1  0  0  0
 24 30  1  0  0  0  0
 26 27  1  0  0  0  0
 28 29  1  1  0  0  0
 28 32  1  0  0  0  0
 30 31  1  6  0  0  0
M  END
>  <CHROM.1>
-93.79305177,97.18822688,-106.98149404,179.84345856,-68.37926560,-167.93575002
20.00800093,30.23013427,36.30387698,1.17199896,-0.33567369,0.19505417

>  <Name>
ligand

>  <RI>
0

>  <Rbt.Current_Directory>
/home/itssahil/PROJECTS/Mol_Feturizer/New_Systems/rnas/4p3s

>  <Rbt.Executable>
rbdock ($Id: //depot/dev/client3/rdock/2013.1/src/exe/rbdock.cxx#4 $)

>  <Rbt.Library>
libRbt.so (2013.1, Build901 2013/11/27)

>  <Rbt.Parameter_File>
/export/apps/rDock/src/rDock_2013.1_src/data/scripts/dock_solv.prm

>  <Rbt.Receptor>
prm/pocket_docking_4.prm

>  <SCORE>
-4.64885

>  <SCORE.INTER>
-7.72493

>  <SCORE.INTER.CONST>
1

>  <SCORE.INTER.POLAR>
0

>  <SCORE.INTER.ROT>
6

>  <SCORE.INTER.SOLV>
14.9948

>  <SCORE.INTER.VDW>
-17.7482

>  <SCORE.INTER.norm>
-0.227204

>  <SCORE.INTRA>
3.07608

>  <SCORE.INTRA.DIHEDRAL>
-4.38959

>  <SCORE.INTRA.DIHEDRAL.0>
15.8194

>  <SCORE.INTRA.POLAR>
0

>  <SCORE.INTRA.POLAR.0>
0

>  <SCORE.INTRA.REPUL>
0

>  <SCORE.INTRA.REPUL.0>
0

>  <SCORE.INTRA.SOLV>
5.08784

>  <SCORE.INTRA.SOLV.lig_0>
-71.9159

>  <SCORE.INTRA.VDW>
2.72695

>  <SCORE.INTRA.VDW.0>
-3.53918

>  <SCORE.INTRA.norm>
0.090473

>  <SCORE.RESTR>
0

>  <SCORE.RESTR.CAVITY>
0

>  <SCORE.RESTR.norm>
0

>  <SCORE.SYSTEM>
0

>  <SCORE.SYSTEM.CONST>
0

>  <SCORE.SYSTEM.DIHEDRAL>
0

>  <SCORE.SYSTEM.SOLV>
0

>  <SCORE.SYSTEM.norm>
0

>  <SCORE.heavy>
34

>  <SCORE.norm>
-0.136731

>  <RMSD>
8.593

$$$$
ligand
 OpenBabel01301917533D
libRbt.so/2013.1/901 2013/11/27
 34 36  0  0  0  0  0  0  0  0999 V2000
   21.6784   33.6703   37.0661 C   0  0  2  0  0  0  0  0  0  0  0  0
   22.2721   32.3988   36.7849 O   0  0  0  0  0  0  0  0  0  0  0  0
   19.2921   31.0695   34.0001 C   0  0  2  0  0  0  0  0  0  0  0  0
   18.5841   30.2875   32.9775 N   0  0  0  0  0  0  0  0  0  0  0  0
   18.0629   29.1497   37.1185 C   0  0  2  0  0  0  0  0  0  0  0  0
   22.7025   34.5087   37.9199 C   0  0  2  0  0  0  0  0  0  0  0  0
   23.9704   34.6855   37.1939 N   0  0  0  0  0  0  0  0  0  0  0  0
   20.7094   31.4339   33.4278 C   0  0  0  0  0  0  0  0  0  0  0  0
   18.5049   27.6830   36.7326 C   0  0  2  0  0  0  0  0  0  0  0  0
   19.8381   27.6812   36.2519 O   0  0  0  0  0  0  0  0  0  0  0  0
   22.9620   33.8094   39.2883 C   0  0  1  0  0  0  0  0  0  0  0  0
   23.8978   34.5725   40.0720 O   0  0  0  0  0  0  0  0  0  0  0  0
   21.4573   32.2856   34.5129 C   0  0  2  0  0  0  0  0  0  0  0  0
   22.8188   32.6638   34.0379 N   0  0  0  0  0  0  0  0  0  0  0  0
   17.5230   27.1507   35.6215 C   0  0  1  0  0  0  0  0  0  0  0  0
   17.9053   25.7915   35.1887 N   0  0  0  0  0  0  0  0  0  0  0  0
   21.6077   33.6460   40.0172 C   0  0  2  0  0  0  0  0  0  0  0  0
   21.8255   33.0158   41.2834 O   0  0  0  0  0  0  0  0  0  0  0  0
   21.5935   31.4897   35.8461 C   0  0  2  0  0  0  0  0  0  0  0  0
   16.0672   27.1523   36.1861 C   0  0  1  0  0  0  0  0  0  0  0  0
   16.0164   26.2691   37.3018 O   0  0  0  0  0  0  0  0  0  0  0  0
   20.6327   32.7903   39.0989 C   0  0  2  0  0  0  0  0  0  0  0  0
   20.4290   33.4532   37.7915 O   0  0  0  0  0  0  0  0  0  0  0  0
   20.1793   31.0885   36.3468 C   0  0  2  0  0  0  0  0  0  0  0  0
   20.3338   30.3361   37.5484 O   0  0  0  0  0  0  0  0  0  0  0  0
   15.7023   28.6031   36.6374 C   0  0  0  0  0  0  0  0  0  0  0  0
   16.6773   29.1215   37.6266 O   0  0  0  0  0  0  0  0  0  0  0  0
   19.2351   32.5739   39.7471 C   0  0  2  0  0  0  0  0  0  0  0  0
   18.4309   31.7700   38.8769 O   0  0  0  0  0  0  0  0  0  0  0  0
   19.4355   30.1987   35.3205 C   0  0  1  0  0  0  0  0  0  0  0  0
   18.1198   29.8981   35.8620 O   0  0  0  0  0  0  0  0  0  0  0  0
   18.5050   33.8783   39.9796 C   0  0  0  0  0  0  0  0  0  0  0  0
   15.0472   26.6653   35.1558 C   0  0  0  0  0  0  0  0  0  0  0  0
   18.1986   25.8537   33.7358 C   0  0  0  0  0  0  0  0  0  0  0  0
  1  2  1  1  0  0  0
  1  6  1  0  0  0  0
  1 23  1  0  0  0  0
  3  4  1  6  0  0  0
  3  8  1  0  0  0  0
  3 30  1  0  0  0  0
  5  9  1  0  0  0  0
  5 27  1  0  0  0  0
  5 31  1  6  0  0  0
  6  7  1  6  0  0  0
  6 11  1  0  0  0  0
  8 13  1  0  0  0  0
  9 10  1  6  0  0  0
  9 15  1  0  0  0  0
 11 12  1  1  0  0  0
 11 17  1  0  0  0  0
 13 14  1  6  0  0  0
 13 19  1  0  0  0  0
 15 16  1  1  0  0  0
 15 20  1  0  0  0  0
 16 34  1  0  0  0  0
 17 18  1  1  0  0  0
 17 22  1  0  0  0  0
 19  2  1  1  0  0  0
 19 24  1  0  0  0  0
 20 21  1  1  0  0  0
 20 26  1  0  0  0  0
 20 33  1  0  0  0  0
 22 23  1  6  0  0  0
 22 28  1  0  0  0  0
 24 25  1  1  0  0  0
 24 30  1  0  0  0  0
 26 27  1  0  0  0  0
 28 29  1  6  0  0  0
 28 32  1  0  0  0  0
 30 31  1  1  0  0  0
M  END
>  <CHROM.1>
-171.88156502,57.56054236,-120.06142805,-178.57301736,-177.33496026,-71.71755983
19.69623123,30.76803069,36.87839057,-0.66028834,-0.73517697,-2.00080601

>  <Name>
ligand

>  <RI>
0

>  <Rbt.Current_Directory>
/home/itssahil/PROJECTS/Mol_Feturizer/New_Systems/rnas/4p3s

>  <Rbt.Executable>
rbdock ($Id: //depot/dev/client3/rdock/2013.1/src/exe/rbdock.cxx#4 $)

>  <Rbt.Library>
libRbt.so (2013.1, Build901 2013/11/27)

>  <Rbt.Parameter_File>
/export/apps/rDock/src/rDock_2013.1_src/data/scripts/dock_solv.prm

>  <Rbt.Receptor>
prm/pocket_docking_5.prm

>  <SCORE>
-7.55852

>  <SCORE.INTER>
-3.61704

>  <SCORE.INTER.CONST>
1

>  <SCORE.INTER.POLAR>
0

>  <SCORE.INTER.ROT>
6

>  <SCORE.INTER.SOLV>
16.0502

>  <SCORE.INTER.VDW>
-15.3614

>  <SCORE.INTER.norm>
-0.106384

>  <SCORE.INTRA>
-3.94148

>  <SCORE.INTRA.DIHEDRAL>
-13.4555

>  <SCORE.INTRA.DIHEDRAL.0>
15.8194

>  <SCORE.INTRA.POLAR>
0

>  <SCORE.INTRA.POLAR.0>
0

>  <SCORE.INTRA.REPUL>
0

>  <SCORE.INTRA.REPUL.0>
0

>  <SCORE.INTRA.SOLV>
1.16241

>  <SCORE.INTRA.SOLV.lig_0>
-71.9159

>  <SCORE.INTRA.VDW>
2.20506

>  <SCORE.INTRA.VDW.0>
-3.53918

>  <SCORE.INTRA.norm>
-0.115926

>  <SCORE.RESTR>
0

>  <SCORE.RESTR.CAVITY>
0

>  <SCORE.RESTR.norm>
0

>  <SCORE.SYSTEM>
0

>  <SCORE.SYSTEM.CONST>
0

>  <SCORE.SYSTEM.DIHEDRAL>
0

>  <SCORE.SYSTEM.SOLV>
0

>  <SCORE.SYSTEM.norm>
0

>  <SCORE.heavy>
34

>  <SCORE.norm>
-0.222309

>  <RMSD>
8.595

$$$$
ligand
 OpenBabel01301917533D
libRbt.so/2013.1/901 2013/11/27
 34 36  0  0  0  0  0  0  0  0999 V2000
   22.6577   30.5786   36.3115 C   0  0  2  0  0  0  0  0  0  0  0  0
   21.4021   30.5365   36.9969 O   0  0  0  0  0  0  0  0  0  0  0  0
   20.6139   26.3700   36.3478 C   0  0  2  0  0  0  0  0  0  0  0  0
   19.9901   25.0407   36.3986 N   0  0  0  0  0  0  0  0  0  0  0  0
   18.0760   26.8612   33.7284 C   0  0  2  0  0  0  0  0  0  0  0  0
   23.6630   31.4187   37.1858 C   0  0  2  0  0  0  0  0  0  0  0  0
   23.8279   30.8177   38.5191 N   0  0  0  0  0  0  0  0  0  0  0  0
   20.8581   26.8408   37.8270 C   0  0  0  0  0  0  0  0  0  0  0  0
   17.5313   25.4973   34.3101 C   0  0  2  0  0  0  0  0  0  0  0  0
   17.5137   25.5384   35.7266 O   0  0  0  0  0  0  0  0  0  0  0  0
   23.1620   32.8884   37.3193 C   0  0  1  0  0  0  0  0  0  0  0  0
   24.0780   33.6600   38.1180 O   0  0  0  0  0  0  0  0  0  0  0  0
   21.5420   28.2520   37.7715 C   0  0  2  0  0  0  0  0  0  0  0  0
   21.7992   28.7660   39.1470 N   0  0  0  0  0  0  0  0  0  0  0  0
   18.4739   24.3386   33.8090 C   0  0  1  0  0  0  0  0  0  0  0  0
   18.0387   23.0352   34.3499 N   0  0  0  0  0  0  0  0  0  0  0  0
   23.0051   33.4810   35.8993 C   0  0  2  0  0  0  0  0  0  0  0  0
   22.5569   34.8364   35.9997 O   0  0  0  0  0  0  0  0  0  0  0  0
   20.6431   29.2748   37.0128 C   0  0  2  0  0  0  0  0  0  0  0  0
   18.4606   24.3114   32.2478 C   0  0  1  0  0  0  0  0  0  0  0  0
   17.1320   24.0393   31.8140 O   0  0  0  0  0  0  0  0  0  0  0  0
   21.9778   32.5851   35.0819 C   0  0  2  0  0  0  0  0  0  0  0  0
   22.4540   31.1864   34.9986 O   0  0  0  0  0  0  0  0  0  0  0  0
   20.3673   28.7455   35.5792 C   0  0  2  0  0  0  0  0  0  0  0  0
   19.5189   29.6824   34.9188 O   0  0  0  0  0  0  0  0  0  0  0  0
   18.9206   25.7062   31.7146 C   0  0  0  0  0  0  0  0  0  0  0  0
   18.0725   26.7962   32.2538 O   0  0  0  0  0  0  0  0  0  0  0  0
   21.7553   33.1006   33.6310 C   0  0  2  0  0  0  0  0  0  0  0  0
   23.0258   33.3145   33.0063 O   0  0  0  0  0  0  0  0  0  0  0  0
   19.6409   27.3779   35.5996 C   0  0  1  0  0  0  0  0  0  0  0  0
   19.4509   26.9535   34.2218 O   0  0  0  0  0  0  0  0  0  0  0  0
   20.9972   34.4094   33.5996 C   0  0  0  0  0  0  0  0  0  0  0  0
   19.3714   23.2213   31.6811 C   0  0  0  0  0  0  0  0  0  0  0  0
   19.2369   22.3644   34.9111 C   0  0  0  0  0  0  0  0  0  0  0  0
  1  2  1  1  0  0  0
  1  6  1  0  0  0  0
  1 23  1  0  0  0  0
  3  4  1  1  0  0  0
  3  8  1  0  0  0  0
  3 30  1  0  0  0  0
  5  9  1  0  0  0  0
  5 27  1  0  0  0  0
  5 31  1  1  0  0  0
  6  7  1  1  0  0  0
  6 11  1  0  0  0  0
  8 13  1  0  0  0  0
  9 10  1  1  0  0  0
  9 15  1  0  0  0  0
 11 12  1  1  0  0  0
 11 17  1  0  0  0  0
 13 14  1  1  0  0  0
 13 19  1  0  0  0  0
 15 16  1  1  0  0  0
 15 20  1  0  0  0  0
 16 34  1  0  0  0  0
 17 18  1  1  0  0  0
 17 22  1  0  0  0  0
 19  2  1  6  0  0  0
 19 24  1  0  0  0  0
 20 21  1  6  0  0  0
 20 26  1  0  0  0  0
 20 33  1  0  0  0  0
 22 23  1  6  0  0  0
 22 28  1  0  0  0  0
 24 25  1  6  0  0  0
 24 30  1  0  0  0  0
 26 27  1  0  0  0  0
 28 29  1  1  0  0  0
 28 32  1  0  0  0  0
 30 31  1  6  0  0  0
M  END
>  <CHROM.1>
-139.20613863,62.90992839,-131.33151275,49.97975092,130.07268201,-78.64970931
20.57425975,28.61083276,35.20637307,-0.46151126,1.05110832,2.38997592

>  <Name>
ligand

>  <RI>
0

>  <Rbt.Current_Directory>
/home/itssahil/PROJECTS/Mol_Feturizer/New_Systems/rnas/4p3s

>  <Rbt.Executable>
rbdock ($Id: //depot/dev/client3/rdock/2013.1/src/exe/rbdock.cxx#4 $)

>  <Rbt.Library>
libRbt.so (2013.1, Build901 2013/11/27)

>  <Rbt.Parameter_File>
/export/apps/rDock/src/rDock_2013.1_src/data/scripts/dock_solv.prm

>  <Rbt.Receptor>
prm/blind_docking_80.prm

>  <SCORE>
0.951083

>  <SCORE.INTER>
-5.61805

>  <SCORE.INTER.CONST>
1

>  <SCORE.INTER.POLAR>
0

>  <SCORE.INTER.ROT>
6

>  <SCORE.INTER.SOLV>
17.1431

>  <SCORE.INTER.VDW>
-17.0597

>  <SCORE.INTER.norm>
-0.165237

>  <SCORE.INTRA>
3.66994

>  <SCORE.INTRA.DIHEDRAL>
-0.539817

>  <SCORE.INTRA.DIHEDRAL.0>
15.8194

>  <SCORE.INTRA.POLAR>
0

>  <SCORE.INTRA.POLAR.0>
0

>  <SCORE.INTRA.REPUL>
0

>  <SCORE.INTRA.REPUL.0>
0

>  <SCORE.INTRA.SOLV>
6.0721

>  <SCORE.INTRA.SOLV.lig_0>
-71.9159

>  <SCORE.INTRA.VDW>
0.903796

>  <SCORE.INTRA.VDW.0>
-3.53918

>  <SCORE.INTRA.norm>
0.107939

>  <SCORE.RESTR>
2.89919

>  <SCORE.RESTR.CAVITY>
2.89919

>  <SCORE.RESTR.norm>
0.0852704

>  <SCORE.SYSTEM>
0

>  <SCORE.SYSTEM.CONST>
0

>  <SCORE.SYSTEM.DIHEDRAL>
0

>  <SCORE.SYSTEM.SOLV>
0

>  <SCORE.SYSTEM.norm>
0

>  <SCORE.heavy>
34

>  <SCORE.norm>
0.027973

>  <RMSD>
8.601

$$$$
ligand
 OpenBabel01301917533D
libRbt.so/2013.1/901 2013/11/27
 34 36  0  0  0  0  0  0  0  0999 V2000
   22.6564   30.5601   36.3271 C   0  0  2  0  0  0  0  0  0  0  0  0
   21.4015   30.5235   37.0141 O   0  0  0  0  0  0  0  0  0  0  0  0
   20.6055   26.3546   36.3908 C   0  0  2  0  0  0  0  0  0  0  0  0
   19.9774   25.0276   36.4471 N   0  0  0  0  0  0  0  0  0  0  0  0
   18.0885   26.8487   33.7450 C   0  0  2  0  0  0  0  0  0  0  0  0
   23.6657   31.3979   37.1989 C   0  0  2  0  0  0  0  0  0  0  0  0
   23.8301   30.7984   38.5329 N   0  0  0  0  0  0  0  0  0  0  0  0
   20.8406   26.8358   37.8681 C   0  0  0  0  0  0  0  0  0  0  0  0
   17.5287   25.4821   34.3056 C   0  0  2  0  0  0  0  0  0  0  0  0
   17.4980   25.5068   35.7222 O   0  0  0  0  0  0  0  0  0  0  0  0
   23.1702   32.8697   37.3306 C   0  0  1  0  0  0  0  0  0  0  0  0
   24.0899   33.6391   38.1270 O   0  0  0  0  0  0  0  0  0  0  0  0
   21.5291   28.2446   37.8068 C   0  0  2  0  0  0  0  0  0  0  0  0
   21.7781   28.7682   39.1802 N   0  0  0  0  0  0  0  0  0  0  0  0
   18.4679   24.3225   33.7999 C   0  0  1  0  0  0  0  0  0  0  0  0
   18.0184   23.0160   34.3214 N   0  0  0  0  0  0  0  0  0  0  0  0
   23.0136   33.4606   35.9099 C   0  0  2  0  0  0  0  0  0  0  0  0
   22.5704   34.8177   36.0087 O   0  0  0  0  0  0  0  0  0  0  0  0
   20.6387   29.2642   37.0342 C   0  0  2  0  0  0  0  0  0  0  0  0
   18.4692   24.3135   32.2384 C   0  0  1  0  0  0  0  0  0  0  0  0
   17.1429   24.0560   31.7890 O   0  0  0  0  0  0  0  0  0  0  0  0
   21.9821   32.5671   35.0952 C   0  0  2  0  0  0  0  0  0  0  0  0
   22.4532   31.1665   35.0135 O   0  0  0  0  0  0  0  0  0  0  0  0
   20.3714   28.7249   35.6027 C   0  0  2  0  0  0  0  0  0  0  0  0
   19.5305   29.6593   34.9292 O   0  0  0  0  0  0  0  0  0  0  0  0
   18.9440   25.7111   31.7258 C   0  0  0  0  0  0  0  0  0  0  0  0
   18.0986   26.8008   32.2697 O   0  0  0  0  0  0  0  0  0  0  0  0
   21.7597   33.0811   33.6438 C   0  0  2  0  0  0  0  0  0  0  0  0
   23.0299   33.3286   33.0311 O   0  0  0  0  0  0  0  0  0  0  0  0
   19.6408   27.3596   35.6282 C   0  0  1  0  0  0  0  0  0  0  0  0
   19.4592   26.9254   34.2523 O   0  0  0  0  0  0  0  0  0  0  0  0
   20.9692   34.3705   33.6092 C   0  0  0  0  0  0  0  0  0  0  0  0
   19.3777   23.2236   31.6676 C   0  0  0  0  0  0  0  0  0  0  0  0
   19.2085   22.3256   34.8760 C   0  0  0  0  0  0  0  0  0  0  0  0
  1  2  1  1  0  0  0
  1  6  1  0  0  0  0
  1 23  1  0  0  0  0
  3  4  1  1  0  0  0
  3  8  1  0  0  0  0
  3 30  1  0  0  0  0
  5  9  1  0  0  0  0
  5 27  1  0  0  0  0
  5 31  1  1  0  0  0
  6  7  1  1  0  0  0
  6 11  1  0  0  0  0
  8 13  1  0  0  0  0
  9 10  1  1  0  0  0
  9 15  1  0  0  0  0
 11 12  1  1  0  0  0
 11 17  1  0  0  0  0
 13 14  1  1  0  0  0
 13 19  1  0  0  0  0
 15 16  1  1  0  0  0
 15 20  1  0  0  0  0
 16 34  1  0  0  0  0
 17 18  1  1  0  0  0
 17 22  1  0  0  0  0
 19  2  1  6  0  0  0
 19 24  1  0  0  0  0
 20 21  1  6  0  0  0
 20 26  1  0  0  0  0
 20 33  1  0  0  0  0
 22 23  1  6  0  0  0
 22 28  1  0  0  0  0
 24 25  1  6  0  0  0
 24 30  1  0  0  0  0
 26 27  1  0  0  0  0
 28 29  1  1  0  0  0
 28 32  1  0  0  0  0
 30 31  1  6  0  0  0
M  END
>  <CHROM.1>
-139.14429701,63.46460010,-131.78594801,48.21594011,130.77976851,-79.91600492
20.57411531,28.59687718,35.21799822,-0.45116883,1.05337740,2.38056090

>  <Name>
ligand

>  <RI>
0

>  <Rbt.Current_Directory>
/home/itssahil/PROJECTS/Mol_Feturizer/New_Systems/rnas/4p3s

>  <Rbt.Executable>
rbdock ($Id: //depot/dev/client3/rdock/2013.1/src/exe/rbdock.cxx#4 $)

>  <Rbt.Library>
libRbt.so (2013.1, Build901 2013/11/27)

>  <Rbt.Parameter_File>
/export/apps/rDock/src/rDock_2013.1_src/data/scripts/dock_solv.prm

>  <Rbt.Receptor>
prm/blind_docking_80.prm

>  <SCORE>
0.833255

>  <SCORE.INTER>
-5.62875

>  <SCORE.INTER.CONST>
1

>  <SCORE.INTER.POLAR>
0

>  <SCORE.INTER.ROT>
6

>  <SCORE.INTER.SOLV>
17.1953

>  <SCORE.INTER.VDW>
-17.0843

>  <SCORE.INTER.norm>
-0.165551

>  <SCORE.INTRA>
3.5126

>  <SCORE.INTRA.DIHEDRAL>
-0.25663

>  <SCORE.INTRA.DIHEDRAL.0>
15.8194

>  <SCORE.INTRA.POLAR>
0

>  <SCORE.INTRA.POLAR.0>
0

>  <SCORE.INTRA.REPUL>
0

>  <SCORE.INTRA.REPUL.0>
0

>  <SCORE.INTRA.SOLV>
5.92326

>  <SCORE.INTRA.SOLV.lig_0>
-71.9159

>  <SCORE.INTRA.VDW>
0.67929

>  <SCORE.INTRA.VDW.0>
-3.53918

>  <SCORE.INTRA.norm>
0.103312

>  <SCORE.RESTR>
2.9494

>  <SCORE.RESTR.CAVITY>
2.9494

>  <SCORE.RESTR.norm>
0.086747

>  <SCORE.SYSTEM>
0

>  <SCORE.SYSTEM.CONST>
0

>  <SCORE.SYSTEM.DIHEDRAL>
0

>  <SCORE.SYSTEM.SOLV>
0

>  <SCORE.SYSTEM.norm>
0

>  <SCORE.heavy>
34

>  <SCORE.norm>
0.0245075

>  <RMSD>
8.603

$$$$
ligand
 OpenBabel01301917533D
libRbt.so/2013.1/901 2013/11/27
 34 36  0  0  0  0  0  0  0  0999 V2000
   20.4232   36.0467   31.2387 C   0  0  2  0  0  0  0  0  0  0  0  0
   19.8306   34.7993   30.8631 O   0  0  0  0  0  0  0  0  0  0  0  0
   20.4948   31.1493   33.0168 C   0  0  2  0  0  0  0  0  0  0  0  0
   21.0258   29.8392   33.4173 N   0  0  0  0  0  0  0  0  0  0  0  0
   23.3422   33.0056   34.8009 C   0  0  2  0  0  0  0  0  0  0  0  0
   19.3613   37.1842   30.9956 C   0  0  2  0  0  0  0  0  0  0  0  0
   18.1413   36.9401   31.7818 N   0  0  0  0  0  0  0  0  0  0  0  0
   20.0133   31.0349   31.5254 C   0  0  0  0  0  0  0  0  0  0  0  0
   23.8596   32.3294   36.1314 C   0  0  2  0  0  0  0  0  0  0  0  0
   24.0637   30.9414   35.9310 O   0  0  0  0  0  0  0  0  0  0  0  0
   19.0114   37.2789   29.4798 C   0  0  1  0  0  0  0  0  0  0  0  0
   18.0408   38.3175   29.2530 O   0  0  0  0  0  0  0  0  0  0  0  0
   19.4287   32.4290   31.1047 C   0  0  2  0  0  0  0  0  0  0  0  0
   18.9555   32.3959   29.6915 N   0  0  0  0  0  0  0  0  0  0  0  0
   22.7801   32.5661   37.2544 C   0  0  1  0  0  0  0  0  0  0  0  0
   23.1883   31.9245   38.5203 N   0  0  0  0  0  0  0  0  0  0  0  0
   20.3176   37.5377   28.6931 C   0  0  2  0  0  0  0  0  0  0  0  0
   20.0165   37.6403   27.2978 O   0  0  0  0  0  0  0  0  0  0  0  0
   20.5043   33.5479   31.2484 C   0  0  2  0  0  0  0  0  0  0  0  0
   22.5888   34.1021   37.4602 C   0  0  1  0  0  0  0  0  0  0  0  0
   23.8272   34.6557   37.8931 O   0  0  0  0  0  0  0  0  0  0  0  0
   21.3342   36.3515   28.9855 C   0  0  2  0  0  0  0  0  0  0  0  0
   21.6243   36.2555   30.4335 O   0  0  0  0  0  0  0  0  0  0  0  0
   21.0054   33.5874   32.7176 C   0  0  2  0  0  0  0  0  0  0  0  0
   22.0090   34.5960   32.8145 O   0  0  0  0  0  0  0  0  0  0  0  0
   22.1636   34.7446   36.1008 C   0  0  0  0  0  0  0  0  0  0  0  0
   23.1497   34.4505   35.0334 O   0  0  0  0  0  0  0  0  0  0  0  0
   22.6878   36.5241   28.2382 C   0  0  2  0  0  0  0  0  0  0  0  0
   23.1964   37.8403   28.4815 O   0  0  0  0  0  0  0  0  0  0  0  0
   21.6405   32.2415   33.1463 C   0  0  1  0  0  0  0  0  0  0  0  0
   22.0530   32.3657   34.5352 O   0  0  0  0  0  0  0  0  0  0  0  0
   22.5404   36.3533   26.7423 C   0  0  0  0  0  0  0  0  0  0  0  0
   21.5371   34.4159   38.5253 C   0  0  0  0  0  0  0  0  0  0  0  0
   22.7817   30.4996   38.4476 C   0  0  0  0  0  0  0  0  0  0  0  0
  1  2  1  6  0  0  0
  1  6  1  0  0  0  0
  1 23  1  0  0  0  0
  3  4  1  6  0  0  0
  3  8  1  0  0  0  0
  3 30  1  0  0  0  0
  5  9  1  0  0  0  0
  5 27  1  0  0  0  0
  5 31  1  1  0  0  0
  6  7  1  1  0  0  0
  6 11  1  0  0  0  0
  8 13  1  0  0  0  0
  9 10  1  6  0  0  0
  9 15  1  0  0  0  0
 11 12  1  1  0  0  0
 11 17  1  0  0  0  0
 13 14  1  6  0  0  0
 13 19  1  0  0  0  0
 15 16  1  1  0  0  0
 15 20  1  0  0  0  0
 16 34  1  0  0  0  0
 17 18  1  6  0  0  0
 17 22  1  0  0  0  0
 19  2  1  1  0  0  0
 19 24  1  0  0  0  0
 20 21  1  1  0  0  0
 20 26  1  0  0  0  0
 20 33  1  0  0  0  0
 22 23  1  1  0  0  0
 22 28  1  0  0  0  0
 24 25  1  6  0  0  0
 24 30  1  0  0  0  0
 26 27  1  0  0  0  0
 28 29  1  6  0  0  0
 28 32  1  0  0  0  0
 30 31  1  1  0  0  0
M  END
>  <CHROM.1>
-167.53047945,162.71432485,-83.67547159,50.47286656,162.05493408,-150.04529346
21.40423211,34.32160622,32.69594305,-2.25077222,1.15300447,2.70780084

>  <Name>
ligand

>  <RI>
0

>  <Rbt.Current_Directory>
/home/itssahil/PROJECTS/Mol_Feturizer/New_Systems/rnas/4p3s

>  <Rbt.Executable>
rbdock ($Id: //depot/dev/client3/rdock/2013.1/src/exe/rbdock.cxx#4 $)

>  <Rbt.Library>
libRbt.so (2013.1, Build901 2013/11/27)

>  <Rbt.Parameter_File>
/export/apps/rDock/src/rDock_2013.1_src/data/scripts/dock_solv.prm

>  <Rbt.Receptor>
prm/blind_docking_100.prm

>  <SCORE>
0.708461

>  <SCORE.INTER>
0.624369

>  <SCORE.INTER.CONST>
1

>  <SCORE.INTER.POLAR>
0

>  <SCORE.INTER.ROT>
6

>  <SCORE.INTER.SOLV>
13.0497

>  <SCORE.INTER.VDW>
-11.5336

>  <SCORE.INTER.norm>
0.0183638

>  <SCORE.INTRA>
-1.56013

>  <SCORE.INTRA.DIHEDRAL>
-7.85627

>  <SCORE.INTRA.DIHEDRAL.0>
15.8194

>  <SCORE.INTRA.POLAR>
0

>  <SCORE.INTRA.POLAR.0>
0

>  <SCORE.INTRA.REPUL>
0

>  <SCORE.INTRA.REPUL.0>
0

>  <SCORE.INTRA.SOLV>
-1.7061

>  <SCORE.INTRA.SOLV.lig_0>
-71.9159

>  <SCORE.INTRA.VDW>
3.22106

>  <SCORE.INTRA.VDW.0>
-3.53918

>  <SCORE.INTRA.norm>
-0.0458862

>  <SCORE.RESTR>
1.64422

>  <SCORE.RESTR.CAVITY>
1.64422

>  <SCORE.RESTR.norm>
0.0483595

>  <SCORE.SYSTEM>
0

>  <SCORE.SYSTEM.CONST>
0

>  <SCORE.SYSTEM.DIHEDRAL>
0

>  <SCORE.SYSTEM.SOLV>
0

>  <SCORE.SYSTEM.norm>
0

>  <SCORE.heavy>
34

>  <SCORE.norm>
0.0208371

>  <RMSD>
8.611

$$$$
ligand
 OpenBabel01301917533D
libRbt.so/2013.1/901 2013/11/27
 34 36  0  0  0  0  0  0  0  0999 V2000
   23.9808   26.4745   39.1768 C   0  0  2  0  0  0  0  0  0  0  0  0
   22.9983   25.8562   40.0139 O   0  0  0  0  0  0  0  0  0  0  0  0
   18.7829   26.4883   40.4964 C   0  0  2  0  0  0  0  0  0  0  0  0
   17.4917   27.0883   40.8590 N   0  0  0  0  0  0  0  0  0  0  0  0
   18.8305   28.5879   37.3141 C   0  0  2  0  0  0  0  0  0  0  0  0
   25.2607   25.5565   39.1668 C   0  0  2  0  0  0  0  0  0  0  0  0
   24.9372   24.2104   38.6675 N   0  0  0  0  0  0  0  0  0  0  0  0
   19.6600   26.4174   41.7983 C   0  0  0  0  0  0  0  0  0  0  0  0
   17.5046   28.6089   36.4557 C   0  0  2  0  0  0  0  0  0  0  0  0
   16.3775   28.7910   37.2954 O   0  0  0  0  0  0  0  0  0  0  0  0
   25.8684   25.4647   40.5991 C   0  0  1  0  0  0  0  0  0  0  0  0
   27.0385   24.6262   40.5946 O   0  0  0  0  0  0  0  0  0  0  0  0
   21.0314   25.7587   41.4139 C   0  0  2  0  0  0  0  0  0  0  0  0
   21.9216   25.6642   42.6060 N   0  0  0  0  0  0  0  0  0  0  0  0
   17.3964   27.2385   35.6859 C   0  0  1  0  0  0  0  0  0  0  0  0
   16.1543   27.1792   34.8892 N   0  0  0  0  0  0  0  0  0  0  0  0
   26.1950   26.8968   41.0831 C   0  0  2  0  0  0  0  0  0  0  0  0
   26.7663   26.8340   42.3937 O   0  0  0  0  0  0  0  0  0  0  0  0
   21.7555   26.5880   40.3106 C   0  0  2  0  0  0  0  0  0  0  0  0
   18.6439   27.0748   34.7612 C   0  0  1  0  0  0  0  0  0  0  0  0
   18.6411   28.1345   33.8101 O   0  0  0  0  0  0  0  0  0  0  0  0
   24.8595   27.7585   41.0688 C   0  0  2  0  0  0  0  0  0  0  0  0
   24.2794   27.8024   39.7080 O   0  0  0  0  0  0  0  0  0  0  0  0
   20.8334   26.6943   39.0656 C   0  0  2  0  0  0  0  0  0  0  0  0
   21.5051   27.4827   38.0853 O   0  0  0  0  0  0  0  0  0  0  0  0
   19.9353   27.1484   35.6377 C   0  0  0  0  0  0  0  0  0  0  0  0
   19.9880   28.4095   36.4156 O   0  0  0  0  0  0  0  0  0  0  0  0
   25.0868   29.2243   41.5380 C   0  0  2  0  0  0  0  0  0  0  0  0
   23.8226   29.8891   41.6377 O   0  0  0  0  0  0  0  0  0  0  0  0
   19.4919   27.3922   39.3998 C   0  0  1  0  0  0  0  0  0  0  0  0
   18.6903   27.4214   38.1869 O   0  0  0  0  0  0  0  0  0  0  0  0
   25.9471   30.0069   40.5706 C   0  0  0  0  0  0  0  0  0  0  0  0
   18.6230   25.7536   33.9911 C   0  0  0  0  0  0  0  0  0  0  0  0
   15.3633   26.0261   35.3847 C   0  0  0  0  0  0  0  0  0  0  0  0
  1  2  1  1  0  0  0
  1  6  1  0  0  0  0
  1 23  1  0  0  0  0
  3  4  1  1  0  0  0
  3  8  1  0  0  0  0
  3 30  1  0  0  0  0
  5  9  1  0  0  0  0
  5 27  1  0  0  0  0
  5 31  1  1  0  0  0
  6  7  1  1  0  0  0
  6 11  1  0  0  0  0
  8 13  1  0  0  0  0
  9 10  1  1  0  0  0
  9 15  1  0  0  0  0
 11 12  1  6  0  0  0
 11 17  1  0  0  0  0
 13 14  1  1  0  0  0
 13 19  1  0  0  0  0
 15 16  1  6  0  0  0
 15 20  1  0  0  0  0
 16 34  1  0  0  0  0
 17 18  1  1  0  0  0
 17 22  1  0  0  0  0
 19  2  1  6  0  0  0
 19 24  1  0  0  0  0
 20 21  1  6  0  0  0
 20 26  1  0  0  0  0
 20 33  1  0  0  0  0
 22 23  1  6  0  0  0
 22 28  1  0  0  0  0
 24 25  1  6  0  0  0
 24 30  1  0  0  0  0
 26 27  1  0  0  0  0
 28 29  1  6  0  0  0
 28 32  1  0  0  0  0
 30 31  1  6  0  0  0
M  END
>  <CHROM.1>
173.42253494,-170.78020277,-119.77838970,-173.70964364,154.16561737,-158.57273833
21.35634139,27.09531905,38.80948611,-0.56422070,0.12607622,-1.66621200

>  <Name>
ligand

>  <RI>
0

>  <Rbt.Current_Directory>
/home/itssahil/PROJECTS/Mol_Feturizer/New_Systems/rnas/4p3s

>  <Rbt.Executable>
rbdock ($Id: //depot/dev/client3/rdock/2013.1/src/exe/rbdock.cxx#4 $)

>  <Rbt.Library>
libRbt.so (2013.1, Build901 2013/11/27)

>  <Rbt.Parameter_File>
/export/apps/rDock/src/rDock_2013.1_src/data/scripts/dock_solv.prm

>  <Rbt.Receptor>
prm/pocket_docking_6.prm

>  <SCORE>
-10.0229

>  <SCORE.INTER>
-6.12729

>  <SCORE.INTER.CONST>
1

>  <SCORE.INTER.POLAR>
0

>  <SCORE.INTER.ROT>
6

>  <SCORE.INTER.SOLV>
17.6258

>  <SCORE.INTER.VDW>
-17.5601

>  <SCORE.INTER.norm>
-0.180215

>  <SCORE.INTRA>
-3.89561

>  <SCORE.INTRA.DIHEDRAL>
-8.93371

>  <SCORE.INTRA.DIHEDRAL.0>
15.8194

>  <SCORE.INTRA.POLAR>
0

>  <SCORE.INTRA.POLAR.0>
0

>  <SCORE.INTRA.REPUL>
0

>  <SCORE.INTRA.REPUL.0>
0

>  <SCORE.INTRA.SOLV>
-1.62439

>  <SCORE.INTRA.SOLV.lig_0>
-71.9159

>  <SCORE.INTRA.VDW>
1.38344

>  <SCORE.INTRA.VDW.0>
-3.53918

>  <SCORE.INTRA.norm>
-0.114577

>  <SCORE.RESTR>
0

>  <SCORE.RESTR.CAVITY>
0

>  <SCORE.RESTR.norm>
0

>  <SCORE.SYSTEM>
0

>  <SCORE.SYSTEM.CONST>
0

>  <SCORE.SYSTEM.DIHEDRAL>
0

>  <SCORE.SYSTEM.SOLV>
0

>  <SCORE.SYSTEM.norm>
0

>  <SCORE.heavy>
34

>  <SCORE.norm>
-0.294791

>  <RMSD>
8.620

$$$$
ligand
 OpenBabel01301917533D
libRbt.so/2013.1/901 2013/11/27
 34 36  0  0  0  0  0  0  0  0999 V2000
   21.2408   32.3665   34.8454 C   0  0  2  0  0  0  0  0  0  0  0  0
   21.8714   31.0825   34.8030 O   0  0  0  0  0  0  0  0  0  0  0  0
   22.1855   27.4553   37.0717 C   0  0  2  0  0  0  0  0  0  0  0  0
   22.0176   26.4481   38.1281 N   0  0  0  0  0  0  0  0  0  0  0  0
   18.9653   26.0602   35.8925 C   0  0  2  0  0  0  0  0  0  0  0  0
   21.1649   32.9217   33.3734 C   0  0  2  0  0  0  0  0  0  0  0  0
   20.4052   32.0071   32.5060 N   0  0  0  0  0  0  0  0  0  0  0  0
   22.6860   28.7814   37.7499 C   0  0  0  0  0  0  0  0  0  0  0  0
   18.9185   24.5577   35.4070 C   0  0  2  0  0  0  0  0  0  0  0  0
   19.7604   23.7530   36.2146 O   0  0  0  0  0  0  0  0  0  0  0  0
   22.5999   33.1324   32.8029 C   0  0  1  0  0  0  0  0  0  0  0  0
   22.5351   33.6396   31.4572 O   0  0  0  0  0  0  0  0  0  0  0  0
   22.8836   29.8506   36.6185 C   0  0  2  0  0  0  0  0  0  0  0  0
   23.3544   31.1431   37.1930 N   0  0  0  0  0  0  0  0  0  0  0  0
   19.3953   24.5117   33.9060 C   0  0  1  0  0  0  0  0  0  0  0  0
   19.4094   23.1242   33.4006 N   0  0  0  0  0  0  0  0  0  0  0  0
   23.3605   34.0989   33.7406 C   0  0  2  0  0  0  0  0  0  0  0  0
   24.6786   34.3158   33.2274 O   0  0  0  0  0  0  0  0  0  0  0  0
   21.5504   30.0982   35.8501 C   0  0  2  0  0  0  0  0  0  0  0  0
   18.4410   25.3955   33.0420 C   0  0  1  0  0  0  0  0  0  0  0  0
   17.1281   24.8501   33.1212 O   0  0  0  0  0  0  0  0  0  0  0  0
   23.3979   33.4715   35.2004 C   0  0  2  0  0  0  0  0  0  0  0  0
   22.0265   33.2455   35.7084 O   0  0  0  0  0  0  0  0  0  0  0  0
   21.0508   28.7556   35.2507 C   0  0  2  0  0  0  0  0  0  0  0  0
   19.8162   29.0037   34.5812 O   0  0  0  0  0  0  0  0  0  0  0  0
   18.4488   26.8512   33.6098 C   0  0  0  0  0  0  0  0  0  0  0  0
   18.0721   26.8729   35.0436 O   0  0  0  0  0  0  0  0  0  0  0  0
   24.1423   34.3772   36.2232 C   0  0  2  0  0  0  0  0  0  0  0  0
   24.8581   33.5529   37.1496 O   0  0  0  0  0  0  0  0  0  0  0  0
   20.7918   27.6950   36.3490 C   0  0  1  0  0  0  0  0  0  0  0  0
   20.3556   26.4722   35.6940 O   0  0  0  0  0  0  0  0  0  0  0  0
   23.1906   35.2463   37.0153 C   0  0  0  0  0  0  0  0  0  0  0  0
   18.8509   25.4189   31.5688 C   0  0  0  0  0  0  0  0  0  0  0  0
   20.7209   22.9040   32.7431 C   0  0  0  0  0  0  0  0  0  0  0  0
  1  2  1  6  0  0  0
  1  6  1  0  0  0  0
  1 23  1  0  0  0  0
  3  4  1  1  0  0  0
  3  8  1  0  0  0  0
  3 30  1  0  0  0  0
  5  9  1  0  0  0  0
  5 27  1  0  0  0  0
  5 31  1  6  0  0  0
  6  7  1  6  0  0  0
  6 11  1  0  0  0  0
  8 13  1  0  0  0  0
  9 10  1  1  0  0  0
  9 15  1  0  0  0  0
 11 12  1  6  0  0  0
 11 17  1  0  0  0  0
 13 14  1  1  0  0  0
 13 19  1  0  0  0  0
 15 16  1  6  0  0  0
 15 20  1  0  0  0  0
 16 34  1  0  0  0  0
 17 18  1  6  0  0  0
 17 22  1  0  0  0  0
 19  2  1  6  0  0  0
 19 24  1  0  0  0  0
 20 21  1  1  0  0  0
 20 26  1  0  0  0  0
 20 33  1  0  0  0  0
 22 23  1  1  0  0  0
 22 28  1  0  0  0  0
 24 25  1  1  0  0  0
 24 30  1  0  0  0  0
 26 27  1  0  0  0  0
 28 29  1  1  0  0  0
 28 32  1  0  0  0  0
 30 31  1  6  0  0  0
M  END
>  <CHROM.1>
-152.72438892,-116.36185769,-131.21107636,-144.17017591,133.30516633,-165.21705394
21.18072318,29.22432192,34.88105117,0.67663350,-1.00621851,-0.73213866

>  <Name>
ligand

>  <RI>
0

>  <Rbt.Current_Directory>
/home/itssahil/PROJECTS/Mol_Feturizer/New_Systems/rnas/4p3s

>  <Rbt.Executable>
rbdock ($Id: //depot/dev/client3/rdock/2013.1/src/exe/rbdock.cxx#4 $)

>  <Rbt.Library>
libRbt.so (2013.1, Build901 2013/11/27)

>  <Rbt.Parameter_File>
/export/apps/rDock/src/rDock_2013.1_src/data/scripts/dock_solv.prm

>  <Rbt.Receptor>
prm/blind_docking_80.prm

>  <SCORE>
-1.37778

>  <SCORE.INTER>
-9.39206

>  <SCORE.INTER.CONST>
1

>  <SCORE.INTER.POLAR>
0

>  <SCORE.INTER.ROT>
6

>  <SCORE.INTER.SOLV>
19.8844

>  <SCORE.INTER.VDW>
-20.4895

>  <SCORE.INTER.norm>
-0.276237

>  <SCORE.INTRA>
6.25484

>  <SCORE.INTRA.DIHEDRAL>
6.38813

>  <SCORE.INTRA.DIHEDRAL.0>
15.8194

>  <SCORE.INTRA.POLAR>
0

>  <SCORE.INTRA.POLAR.0>
0

>  <SCORE.INTRA.REPUL>
0

>  <SCORE.INTRA.REPUL.0>
0

>  <SCORE.INTRA.SOLV>
2.6595

>  <SCORE.INTRA.SOLV.lig_0>
-71.9159

>  <SCORE.INTRA.VDW>
1.73102

>  <SCORE.INTRA.VDW.0>
-3.53918

>  <SCORE.INTRA.norm>
0.183966

>  <SCORE.RESTR>
1.75944

>  <SCORE.RESTR.CAVITY>
1.75944

>  <SCORE.RESTR.norm>
0.0517482

>  <SCORE.SYSTEM>
0

>  <SCORE.SYSTEM.CONST>
0

>  <SCORE.SYSTEM.DIHEDRAL>
0

>  <SCORE.SYSTEM.SOLV>
0

>  <SCORE.SYSTEM.norm>
0

>  <SCORE.heavy>
34

>  <SCORE.norm>
-0.0405231

>  <RMSD>
8.623

$$$$
ligand
 OpenBabel01301917533D
libRbt.so/2013.1/901 2013/11/27
 34 36  0  0  0  0  0  0  0  0999 V2000
   18.7565   36.2663   31.3151 C   0  0  2  0  0  0  0  0  0  0  0  0
   18.5200   34.9144   30.9092 O   0  0  0  0  0  0  0  0  0  0  0  0
   20.3470   31.3665   32.4827 C   0  0  2  0  0  0  0  0  0  0  0  0
   21.2848   30.2573   32.7043 N   0  0  0  0  0  0  0  0  0  0  0  0
   22.5119   31.9307   34.7317 C   0  0  2  0  0  0  0  0  0  0  0  0
   17.4338   37.0866   31.0742 C   0  0  2  0  0  0  0  0  0  0  0  0
   16.3136   36.5121   31.8366 N   0  0  0  0  0  0  0  0  0  0  0  0
   19.9613   31.3700   30.9594 C   0  0  0  0  0  0  0  0  0  0  0  0
   22.3768   31.8568   36.3039 C   0  0  2  0  0  0  0  0  0  0  0  0
   21.1780   31.1923   36.6642 O   0  0  0  0  0  0  0  0  0  0  0  0
   17.0879   37.1162   29.5548 C   0  0  1  0  0  0  0  0  0  0  0  0
   15.8792   37.8650   29.3300 O   0  0  0  0  0  0  0  0  0  0  0  0
   18.9448   32.5427   30.7277 C   0  0  2  0  0  0  0  0  0  0  0  0
   18.5377   32.6102   29.2952 N   0  0  0  0  0  0  0  0  0  0  0  0
   22.3756   33.3285   36.8663 C   0  0  1  0  0  0  0  0  0  0  0  0
   22.2148   33.3308   38.3343 N   0  0  0  0  0  0  0  0  0  0  0  0
   18.2873   37.7276   28.7934 C   0  0  2  0  0  0  0  0  0  0  0  0
   17.9851   37.7753   27.3954 O   0  0  0  0  0  0  0  0  0  0  0  0
   19.5722   33.9097   31.1365 C   0  0  2  0  0  0  0  0  0  0  0  0
   23.7129   34.0275   36.4646 C   0  0  1  0  0  0  0  0  0  0  0  0
   24.7907   33.3121   37.0594 O   0  0  0  0  0  0  0  0  0  0  0  0
   19.5788   36.8473   29.0821 C   0  0  2  0  0  0  0  0  0  0  0  0
   19.8680   36.8021   30.5327 O   0  0  0  0  0  0  0  0  0  0  0  0
   20.0024   33.8474   32.6273 C   0  0  2  0  0  0  0  0  0  0  0  0
   20.6006   35.0967   32.9665 O   0  0  0  0  0  0  0  0  0  0  0  0
   23.8493   34.0003   34.9083 C   0  0  0  0  0  0  0  0  0  0  0  0
   23.7725   32.6155   34.3843 O   0  0  0  0  0  0  0  0  0  0  0  0
   20.8462   37.3876   28.3595 C   0  0  2  0  0  0  0  0  0  0  0  0
   21.9361   36.4858   28.5812 O   0  0  0  0  0  0  0  0  0  0  0  0
   21.0497   32.7345   32.8789 C   0  0  1  0  0  0  0  0  0  0  0  0
   21.3693   32.7357   34.2975 O   0  0  0  0  0  0  0  0  0  0  0  0
   21.2596   38.7494   28.8727 C   0  0  0  0  0  0  0  0  0  0  0  0
   23.7805   35.4732   36.9588 C   0  0  0  0  0  0  0  0  0  0  0  0
   21.2643   34.4174   38.6755 C   0  0  0  0  0  0  0  0  0  0  0  0
  1  2  1  6  0  0  0
  1  6  1  0  0  0  0
  1 23  1  0  0  0  0
  3  4  1  6  0  0  0
  3  8  1  0  0  0  0
  3 30  1  0  0  0  0
  5  9  1  0  0  0  0
  5 27  1  0  0  0  0
  5 31  1  1  0  0  0
  6  7  1  1  0  0  0
  6 11  1  0  0  0  0
  8 13  1  0  0  0  0
  9 10  1  6  0  0  0
  9 15  1  0  0  0  0
 11 12  1  1  0  0  0
 11 17  1  0  0  0  0
 13 14  1  6  0  0  0
 13 19  1  0  0  0  0
 15 16  1  1  0  0  0
 15 20  1  0  0  0  0
 16 34  1  0  0  0  0
 17 18  1  6  0  0  0
 17 22  1  0  0  0  0
 19  2  1  1  0  0  0
 19 24  1  0  0  0  0
 20 21  1  1  0  0  0
 20 26  1  0  0  0  0
 20 33  1  0  0  0  0
 22 23  1  1  0  0  0
 22 28  1  0  0  0  0
 24 25  1  6  0  0  0
 24 30  1  0  0  0  0
 26 27  1  0  0  0  0
 28 29  1  1  0  0  0
 28 32  1  0  0  0  0
 30 31  1  1  0  0  0
M  END
>  <CHROM.1>
-175.02229349,174.19213359,-137.76922337,-175.42331421,75.31182370,-166.56866975
20.52399447,34.54067930,32.56502851,-2.49865593,0.95805431,2.91105263

>  <Name>
ligand

>  <RI>
0

>  <Rbt.Current_Directory>
/home/itssahil/PROJECTS/Mol_Feturizer/New_Systems/rnas/4p3s

>  <Rbt.Executable>
rbdock ($Id: //depot/dev/client3/rdock/2013.1/src/exe/rbdock.cxx#4 $)

>  <Rbt.Library>
libRbt.so (2013.1, Build901 2013/11/27)

>  <Rbt.Parameter_File>
/export/apps/rDock/src/rDock_2013.1_src/data/scripts/dock_solv.prm

>  <Rbt.Receptor>
prm/blind_docking_100.prm

>  <SCORE>
-1.79749

>  <SCORE.INTER>
0.880419

>  <SCORE.INTER.CONST>
1

>  <SCORE.INTER.POLAR>
0

>  <SCORE.INTER.ROT>
6

>  <SCORE.INTER.SOLV>
16.0759

>  <SCORE.INTER.VDW>
-12.3717

>  <SCORE.INTER.norm>
0.0258947

>  <SCORE.INTRA>
-4.96071

>  <SCORE.INTRA.DIHEDRAL>
-12.448

>  <SCORE.INTRA.DIHEDRAL.0>
15.8194

>  <SCORE.INTRA.POLAR>
0

>  <SCORE.INTRA.POLAR.0>
0

>  <SCORE.INTRA.REPUL>
0

>  <SCORE.INTRA.REPUL.0>
0

>  <SCORE.INTRA.SOLV>
-1.18252

>  <SCORE.INTRA.SOLV.lig_0>
-71.9159

>  <SCORE.INTRA.VDW>
1.85453

>  <SCORE.INTRA.VDW.0>
-3.53918

>  <SCORE.INTRA.norm>
-0.145903

>  <SCORE.RESTR>
2.2828

>  <SCORE.RESTR.CAVITY>
2.2828

>  <SCORE.RESTR.norm>
0.0671412

>  <SCORE.SYSTEM>
0

>  <SCORE.SYSTEM.CONST>
0

>  <SCORE.SYSTEM.DIHEDRAL>
0

>  <SCORE.SYSTEM.SOLV>
0

>  <SCORE.SYSTEM.norm>
0

>  <SCORE.heavy>
34

>  <SCORE.norm>
-0.0528675

>  <RMSD>
8.624

$$$$
ligand
 OpenBabel01301917533D
libRbt.so/2013.1/901 2013/11/27
 34 36  0  0  0  0  0  0  0  0999 V2000
   19.7183   36.3837   32.2067 C   0  0  2  0  0  0  0  0  0  0  0  0
   20.1097   35.0445   31.8880 O   0  0  0  0  0  0  0  0  0  0  0  0
   22.1350   32.3053   34.4950 C   0  0  2  0  0  0  0  0  0  0  0  0
   23.1934   31.5644   35.1947 N   0  0  0  0  0  0  0  0  0  0  0  0
   22.5163   35.0910   37.0542 C   0  0  2  0  0  0  0  0  0  0  0  0
   18.4484   36.7390   31.3455 C   0  0  2  0  0  0  0  0  0  0  0  0
   17.3466   35.8039   31.6245 N   0  0  0  0  0  0  0  0  0  0  0  0
   22.3910   32.1622   32.9513 C   0  0  0  0  0  0  0  0  0  0  0  0
   23.8207   34.5030   37.7237 C   0  0  2  0  0  0  0  0  0  0  0  0
   24.7216   34.0468   36.7293 O   0  0  0  0  0  0  0  0  0  0  0  0
   18.8023   36.7119   29.8279 C   0  0  1  0  0  0  0  0  0  0  0  0
   17.6440   37.0359   29.0369 O   0  0  0  0  0  0  0  0  0  0  0  0
   21.2492   32.9375   32.2047 C   0  0  2  0  0  0  0  0  0  0  0  0
   21.4323   32.8491   30.7279 N   0  0  0  0  0  0  0  0  0  0  0  0
   23.3959   33.3120   38.6636 C   0  0  1  0  0  0  0  0  0  0  0  0
   24.5784   32.6924   39.2949 N   0  0  0  0  0  0  0  0  0  0  0  0
   19.9594   37.7075   29.5791 C   0  0  2  0  0  0  0  0  0  0  0  0
   20.2923   37.7071   28.1873 O   0  0  0  0  0  0  0  0  0  0  0  0
   21.2350   34.4397   32.6202 C   0  0  2  0  0  0  0  0  0  0  0  0
   22.4161   33.8494   39.7542 C   0  0  1  0  0  0  0  0  0  0  0  0
   23.1013   34.8243   40.5335 O   0  0  0  0  0  0  0  0  0  0  0  0
   21.2007   37.2836   30.4767 C   0  0  2  0  0  0  0  0  0  0  0  0
   20.8332   37.2802   31.9102 O   0  0  0  0  0  0  0  0  0  0  0  0
   21.0478   34.5412   34.1584 C   0  0  2  0  0  0  0  0  0  0  0  0
   21.0699   35.9217   34.5154 O   0  0  0  0  0  0  0  0  0  0  0  0
   21.1835   34.5009   39.0487 C   0  0  0  0  0  0  0  0  0  0  0  0
   21.6019   35.5691   38.1096 O   0  0  0  0  0  0  0  0  0  0  0  0
   22.4206   38.2326   30.2991 C   0  0  2  0  0  0  0  0  0  0  0  0
   21.9842   39.5906   30.4244 O   0  0  0  0  0  0  0  0  0  0  0  0
   22.1911   33.8328   34.9261 C   0  0  1  0  0  0  0  0  0  0  0  0
   21.9168   33.9573   36.3488 O   0  0  0  0  0  0  0  0  0  0  0  0
   23.0718   38.0783   28.9424 C   0  0  0  0  0  0  0  0  0  0  0  0
   21.9401   32.7444   40.6983 C   0  0  0  0  0  0  0  0  0  0  0  0
   24.5197   31.2366   39.0158 C   0  0  0  0  0  0  0  0  0  0  0  0
  1  2  1  6  0  0  0
  1  6  1  0  0  0  0
  1 23  1  0  0  0  0
  3  4  1  1  0  0  0
  3  8  1  0  0  0  0
  3 30  1  0  0  0  0
  5  9  1  0  0  0  0
  5 27  1  0  0  0  0
  5 31  1  1  0  0  0
  6  7  1  6  0  0  0
  6 11  1  0  0  0  0
  8 13  1  0  0  0  0
  9 10  1  6  0  0  0
  9 15  1  0  0  0  0
 11 12  1  6  0  0  0
 11 17  1  0  0  0  0
 13 14  1  6  0  0  0
 13 19  1  0  0  0  0
 15 16  1  1  0  0  0
 15 20  1  0  0  0  0
 16 34  1  0  0  0  0
 17 18  1  6  0  0  0
 17 22  1  0  0  0  0
 19  2  1  6  0  0  0
 19 24  1  0  0  0  0
 20 21  1  1  0  0  0
 20 26  1  0  0  0  0
 20 33  1  0  0  0  0
 22 23  1  1  0  0  0
 22 28  1  0  0  0  0
 24 25  1  1  0  0  0
 24 30  1  0  0  0  0
 26 27  1  0  0  0  0
 28 29  1  6  0  0  0
 28 32  1  0  0  0  0
 30 31  1  1  0  0  0
M  END
>  <CHROM.1>
-176.53586309,171.17669518,-126.76058735,49.26694884,151.47897670,-97.35836992
21.57777174,35.04930308,34.13318328,2.75494678,1.24598423,-2.33124235

>  <Name>
ligand

>  <RI>
0

>  <Rbt.Current_Directory>
/home/itssahil/PROJECTS/Mol_Feturizer/New_Systems/rnas/4p3s

>  <Rbt.Executable>
rbdock ($Id: //depot/dev/client3/rdock/2013.1/src/exe/rbdock.cxx#4 $)

>  <Rbt.Library>
libRbt.so (2013.1, Build901 2013/11/27)

>  <Rbt.Parameter_File>
/export/apps/rDock/src/rDock_2013.1_src/data/scripts/dock_solv.prm

>  <Rbt.Receptor>
prm/blind_docking_60.prm

>  <SCORE>
6.82519

>  <SCORE.INTER>
1.88085

>  <SCORE.INTER.CONST>
1

>  <SCORE.INTER.POLAR>
0

>  <SCORE.INTER.ROT>
6

>  <SCORE.INTER.SOLV>
14.2659

>  <SCORE.INTER.VDW>
-11.1014

>  <SCORE.INTER.norm>
0.0553192

>  <SCORE.INTRA>
-1.6748

>  <SCORE.INTRA.DIHEDRAL>
-5.53077

>  <SCORE.INTRA.DIHEDRAL.0>
15.8194

>  <SCORE.INTRA.POLAR>
0

>  <SCORE.INTRA.POLAR.0>
0

>  <SCORE.INTRA.REPUL>
0

>  <SCORE.INTRA.REPUL.0>
0

>  <SCORE.INTRA.SOLV>
-0.0627637

>  <SCORE.INTRA.SOLV.lig_0>
-71.9159

>  <SCORE.INTRA.VDW>
1.12197

>  <SCORE.INTRA.VDW.0>
-3.53918

>  <SCORE.INTRA.norm>
-0.0492589

>  <SCORE.RESTR>
6.61914

>  <SCORE.RESTR.CAVITY>
6.61914

>  <SCORE.RESTR.norm>
0.194681

>  <SCORE.SYSTEM>
0

>  <SCORE.SYSTEM.CONST>
0

>  <SCORE.SYSTEM.DIHEDRAL>
0

>  <SCORE.SYSTEM.SOLV>
0

>  <SCORE.SYSTEM.norm>
0

>  <SCORE.heavy>
34

>  <SCORE.norm>
0.200741

>  <RMSD>
8.634

$$$$
ligand
 OpenBabel01301917533D
libRbt.so/2013.1/901 2013/11/27
 34 36  0  0  0  0  0  0  0  0999 V2000
   20.7220   35.5095   30.3957 C   0  0  2  0  0  0  0  0  0  0  0  0
   20.4501   35.2421   31.7751 O   0  0  0  0  0  0  0  0  0  0  0  0
   22.0957   32.3652   34.4985 C   0  0  2  0  0  0  0  0  0  0  0  0
   23.0493   31.5542   35.2677 N   0  0  0  0  0  0  0  0  0  0  0  0
   22.4093   35.1469   37.0888 C   0  0  2  0  0  0  0  0  0  0  0  0
   21.5917   36.8202   30.3149 C   0  0  2  0  0  0  0  0  0  0  0  0
   22.8493   36.6626   31.0630 N   0  0  0  0  0  0  0  0  0  0  0  0
   22.4570   32.2137   32.9768 C   0  0  0  0  0  0  0  0  0  0  0  0
   23.7361   34.5810   37.7327 C   0  0  2  0  0  0  0  0  0  0  0  0
   24.6470   34.1900   36.7198 O   0  0  0  0  0  0  0  0  0  0  0  0
   20.7875   38.0347   30.8692 C   0  0  1  0  0  0  0  0  0  0  0  0
   21.5789   39.2351   30.7974 O   0  0  0  0  0  0  0  0  0  0  0  0
   21.4260   33.0646   32.1550 C   0  0  2  0  0  0  0  0  0  0  0  0
   21.7133   32.9721   30.6950 N   0  0  0  0  0  0  0  0  0  0  0  0
   23.3565   33.3448   38.6327 C   0  0  1  0  0  0  0  0  0  0  0  0
   24.5624   32.7444   39.2378 N   0  0  0  0  0  0  0  0  0  0  0  0
   19.4786   38.1652   30.0556 C   0  0  2  0  0  0  0  0  0  0  0  0
   18.7298   39.2839   30.5413 O   0  0  0  0  0  0  0  0  0  0  0  0
   21.4765   34.5625   32.5830 C   0  0  2  0  0  0  0  0  0  0  0  0
   22.3645   33.8109   39.7448 C   0  0  1  0  0  0  0  0  0  0  0  0
   23.0202   34.7812   40.5546 O   0  0  0  0  0  0  0  0  0  0  0  0
   18.6573   36.8110   30.1876 C   0  0  2  0  0  0  0  0  0  0  0  0
   19.4522   35.6660   29.6902 O   0  0  0  0  0  0  0  0  0  0  0  0
   21.1814   34.6680   34.1040 C   0  0  2  0  0  0  0  0  0  0  0  0
   21.2646   36.0424   34.4752 O   0  0  0  0  0  0  0  0  0  0  0  0
   21.1071   34.4439   39.0669 C   0  0  0  0  0  0  0  0  0  0  0  0
   21.4845   35.5573   38.1635 O   0  0  0  0  0  0  0  0  0  0  0  0
   17.3186   36.8422   29.3956 C   0  0  2  0  0  0  0  0  0  0  0  0
   16.4823   37.8777   29.9234 O   0  0  0  0  0  0  0  0  0  0  0  0
   22.2166   33.8837   34.9476 C   0  0  1  0  0  0  0  0  0  0  0  0
   21.8450   34.0184   36.3471 O   0  0  0  0  0  0  0  0  0  0  0  0
   16.5619   35.5365   29.5008 C   0  0  0  0  0  0  0  0  0  0  0  0
   21.9308   32.6587   40.6522 C   0  0  0  0  0  0  0  0  0  0  0  0
   24.4575   31.2739   39.0725 C   0  0  0  0  0  0  0  0  0  0  0  0
  1  2  1  1  0  0  0
  1  6  1  0  0  0  0
  1 23  1  0  0  0  0
  3  4  1  1  0  0  0
  3  8  1  0  0  0  0
  3 30  1  0  0  0  0
  5  9  1  0  0  0  0
  5 27  1  0  0  0  0
  5 31  1  1  0  0  0
  6  7  1  1  0  0  0
  6 11  1  0  0  0  0
  8 13  1  0  0  0  0
  9 10  1  6  0  0  0
  9 15  1  0  0  0  0
 11 12  1  6  0  0  0
 11 17  1  0  0  0  0
 13 14  1  6  0  0  0
 13 19  1  0  0  0  0
 15 16  1  1  0  0  0
 15 20  1  0  0  0  0
 16 34  1  0  0  0  0
 17 18  1  1  0  0  0
 17 22  1  0  0  0  0
 19  2  1  6  0  0  0
 19 24  1  0  0  0  0
 20 21  1  1  0  0  0
 20 26  1  0  0  0  0
 20 33  1  0  0  0  0
 22 23  1  6  0  0  0
 22 28  1  0  0  0  0
 24 25  1  1  0  0  0
 24 30  1  0  0  0  0
 26 27  1  0  0  0  0
 28 29  1  1  0  0  0
 28 32  1  0  0  0  0
 30 31  1  1  0  0  0
M  END
>  <CHROM.1>
-81.56408387,-75.61381095,-134.46423584,-61.87473136,154.44603612,-91.82926401
21.34603776,35.02166199,34.10774917,-2.40407703,-1.01949164,1.21390741

>  <Name>
ligand

>  <RI>
0

>  <Rbt.Current_Directory>
/home/itssahil/PROJECTS/Mol_Feturizer/New_Systems/rnas/4p3s

>  <Rbt.Executable>
rbdock ($Id: //depot/dev/client3/rdock/2013.1/src/exe/rbdock.cxx#4 $)

>  <Rbt.Library>
libRbt.so (2013.1, Build901 2013/11/27)

>  <Rbt.Parameter_File>
/export/apps/rDock/src/rDock_2013.1_src/data/scripts/dock_solv.prm

>  <Rbt.Receptor>
prm/blind_docking_60.prm

>  <SCORE>
5.92573

>  <SCORE.INTER>
0.153274

>  <SCORE.INTER.CONST>
1

>  <SCORE.INTER.POLAR>
0

>  <SCORE.INTER.ROT>
6

>  <SCORE.INTER.SOLV>
19.1628

>  <SCORE.INTER.VDW>
-13.8854

>  <SCORE.INTER.norm>
0.00450807

>  <SCORE.INTRA>
0.376079

>  <SCORE.INTRA.DIHEDRAL>
-4.82743

>  <SCORE.INTRA.DIHEDRAL.0>
15.8194

>  <SCORE.INTRA.POLAR>
0

>  <SCORE.INTRA.POLAR.0>
0

>  <SCORE.INTRA.REPUL>
0

>  <SCORE.INTRA.REPUL.0>
0

>  <SCORE.INTRA.SOLV>
3.45538

>  <SCORE.INTRA.SOLV.lig_0>
-71.9159

>  <SCORE.INTRA.VDW>
1.06211

>  <SCORE.INTRA.VDW.0>
-3.53918

>  <SCORE.INTRA.norm>
0.0110611

>  <SCORE.RESTR>
5.39638

>  <SCORE.RESTR.CAVITY>
5.39638

>  <SCORE.RESTR.norm>
0.158717

>  <SCORE.SYSTEM>
0

>  <SCORE.SYSTEM.CONST>
0

>  <SCORE.SYSTEM.DIHEDRAL>
0

>  <SCORE.SYSTEM.SOLV>
0

>  <SCORE.SYSTEM.norm>
0

>  <SCORE.heavy>
34

>  <SCORE.norm>
0.174286

>  <RMSD>
8.639

$$$$
ligand
 OpenBabel01301917533D
libRbt.so/2013.1/901 2013/11/27
 34 36  0  0  0  0  0  0  0  0999 V2000
   19.7413   36.3496   32.1608 C   0  0  2  0  0  0  0  0  0  0  0  0
   20.1203   35.0180   31.7985 O   0  0  0  0  0  0  0  0  0  0  0  0
   22.0038   32.2346   34.4644 C   0  0  2  0  0  0  0  0  0  0  0  0
   23.0227   31.4493   35.1741 N   0  0  0  0  0  0  0  0  0  0  0  0
   22.5618   35.0888   36.9245 C   0  0  2  0  0  0  0  0  0  0  0  0
   18.4719   36.7428   31.3153 C   0  0  2  0  0  0  0  0  0  0  0  0
   17.3630   35.8087   31.5680 N   0  0  0  0  0  0  0  0  0  0  0  0
   22.2297   32.0299   32.9229 C   0  0  0  0  0  0  0  0  0  0  0  0
   23.8951   34.4975   37.5312 C   0  0  2  0  0  0  0  0  0  0  0  0
   24.7365   34.0182   36.4965 O   0  0  0  0  0  0  0  0  0  0  0  0
   18.8212   36.7609   29.7966 C   0  0  1  0  0  0  0  0  0  0  0  0
   17.6635   37.1197   29.0199 O   0  0  0  0  0  0  0  0  0  0  0  0
   21.1291   32.8534   32.1661 C   0  0  2  0  0  0  0  0  0  0  0  0
   21.2867   32.7099   30.6907 N   0  0  0  0  0  0  0  0  0  0  0  0
   23.5109   33.3243   38.5102 C   0  0  1  0  0  0  0  0  0  0  0  0
   24.7201   32.7019   39.0858 N   0  0  0  0  0  0  0  0  0  0  0  0
   19.9861   37.7542   29.5759 C   0  0  2  0  0  0  0  0  0  0  0  0
   20.3149   37.7951   28.1837 O   0  0  0  0  0  0  0  0  0  0  0  0
   21.2149   34.3651   32.5359 C   0  0  2  0  0  0  0  0  0  0  0  0
   22.5966   33.8869   39.6441 C   0  0  1  0  0  0  0  0  0  0  0  0
   23.3320   34.8659   40.3708 O   0  0  0  0  0  0  0  0  0  0  0  0
   21.2263   37.2915   30.4556 C   0  0  2  0  0  0  0  0  0  0  0  0
   20.8629   37.2456   31.8894 O   0  0  0  0  0  0  0  0  0  0  0  0
   21.0549   34.5238   34.0723 C   0  0  2  0  0  0  0  0  0  0  0  0
   21.1685   35.9101   34.3869 O   0  0  0  0  0  0  0  0  0  0  0  0
   21.3336   34.5406   38.9967 C   0  0  0  0  0  0  0  0  0  0  0  0
   21.7104   35.5911   38.0207 O   0  0  0  0  0  0  0  0  0  0  0  0
   22.4538   38.2353   30.3044 C   0  0  2  0  0  0  0  0  0  0  0  0
   22.0304   39.5917   30.4805 O   0  0  0  0  0  0  0  0  0  0  0  0
   22.1616   33.7676   34.8482 C   0  0  1  0  0  0  0  0  0  0  0  0
   21.9146   33.9513   36.2694 O   0  0  0  0  0  0  0  0  0  0  0  0
   23.0956   38.1236   28.9390 C   0  0  0  0  0  0  0  0  0  0  0  0
   22.1622   32.8003   40.6288 C   0  0  0  0  0  0  0  0  0  0  0  0
   24.4950   31.2358   39.1137 C   0  0  0  0  0  0  0  0  0  0  0  0
  1  2  1  6  0  0  0
  1  6  1  0  0  0  0
  1 23  1  0  0  0  0
  3  4  1  1  0  0  0
  3  8  1  0  0  0  0
  3 30  1  0  0  0  0
  5  9  1  0  0  0  0
  5 27  1  0  0  0  0
  5 31  1  1  0  0  0
  6  7  1  6  0  0  0
  6 11  1  0  0  0  0
  8 13  1  0  0  0  0
  9 10  1  6  0  0  0
  9 15  1  0  0  0  0
 11 12  1  6  0  0  0
 11 17  1  0  0  0  0
 13 14  1  6  0  0  0
 13 19  1  0  0  0  0
 15 16  1  1  0  0  0
 15 20  1  0  0  0  0
 16 34  1  0  0  0  0
 17 18  1  6  0  0  0
 17 22  1  0  0  0  0
 19  2  1  6  0  0  0
 19 24  1  0  0  0  0
 20 21  1  1  0  0  0
 20 26  1  0  0  0  0
 20 33  1  0  0  0  0
 22 23  1  1  0  0  0
 22 28  1  0  0  0  0
 24 25  1  6  0  0  0
 24 30  1  0  0  0  0
 26 27  1  0  0  0  0
 28 29  1  6  0  0  0
 28 32  1  0  0  0  0
 30 31  1  1  0  0  0
M  END
>  <CHROM.1>
-174.65054865,165.80641625,-139.49596307,49.54430485,153.26211126,-94.51828041
21.60586670,35.04176594,34.06936504,-2.80765899,1.24060533,-3.08271774

>  <Name>
ligand

>  <RI>
0

>  <Rbt.Current_Directory>
/home/itssahil/PROJECTS/Mol_Feturizer/New_Systems/rnas/4p3s

>  <Rbt.Executable>
rbdock ($Id: //depot/dev/client3/rdock/2013.1/src/exe/rbdock.cxx#4 $)

>  <Rbt.Library>
libRbt.so (2013.1, Build901 2013/11/27)

>  <Rbt.Parameter_File>
/export/apps/rDock/src/rDock_2013.1_src/data/scripts/dock_solv.prm

>  <Rbt.Receptor>
prm/blind_docking_60.prm

>  <SCORE>
8.1253

>  <SCORE.INTER>
2.70975

>  <SCORE.INTER.CONST>
1

>  <SCORE.INTER.POLAR>
0

>  <SCORE.INTER.ROT>
6

>  <SCORE.INTER.SOLV>
14.2248

>  <SCORE.INTER.VDW>
-10.5351

>  <SCORE.INTER.norm>
0.0796986

>  <SCORE.INTRA>
-0.980306

>  <SCORE.INTRA.DIHEDRAL>
-5.98044

>  <SCORE.INTRA.DIHEDRAL.0>
15.8194

>  <SCORE.INTRA.POLAR>
0

>  <SCORE.INTRA.POLAR.0>
0

>  <SCORE.INTRA.REPUL>
0

>  <SCORE.INTRA.REPUL.0>
0

>  <SCORE.INTRA.SOLV>
-0.269883

>  <SCORE.INTRA.SOLV.lig_0>
-71.9159

>  <SCORE.INTRA.VDW>
2.14486

>  <SCORE.INTRA.VDW.0>
-3.53918

>  <SCORE.INTRA.norm>
-0.0288325

>  <SCORE.RESTR>
6.39586

>  <SCORE.RESTR.CAVITY>
6.39586

>  <SCORE.RESTR.norm>
0.188113

>  <SCORE.SYSTEM>
0

>  <SCORE.SYSTEM.CONST>
0

>  <SCORE.SYSTEM.DIHEDRAL>
0

>  <SCORE.SYSTEM.SOLV>
0

>  <SCORE.SYSTEM.norm>
0

>  <SCORE.heavy>
34

>  <SCORE.norm>
0.238979

>  <RMSD>
8.640

$$$$
ligand
 OpenBabel01301917533D
libRbt.so/2013.1/901 2013/11/27
 34 36  0  0  0  0  0  0  0  0999 V2000
   20.7657   35.5135   30.4261 C   0  0  2  0  0  0  0  0  0  0  0  0
   20.5006   35.2806   31.8130 O   0  0  0  0  0  0  0  0  0  0  0  0
   22.1112   32.3797   34.5320 C   0  0  2  0  0  0  0  0  0  0  0  0
   23.0549   31.5598   35.3038 N   0  0  0  0  0  0  0  0  0  0  0  0
   22.4139   35.1466   37.1404 C   0  0  2  0  0  0  0  0  0  0  0  0
   21.6311   36.8242   30.3081 C   0  0  2  0  0  0  0  0  0  0  0  0
   22.8924   36.6894   31.0544 N   0  0  0  0  0  0  0  0  0  0  0  0
   22.4838   32.2357   33.0123 C   0  0  0  0  0  0  0  0  0  0  0  0
   23.7277   34.5712   37.8024 C   0  0  2  0  0  0  0  0  0  0  0  0
   24.6507   34.1763   36.8020 O   0  0  0  0  0  0  0  0  0  0  0  0
   20.8257   38.0502   30.8348 C   0  0  1  0  0  0  0  0  0  0  0  0
   21.6132   39.2506   30.7290 O   0  0  0  0  0  0  0  0  0  0  0  0
   21.4634   33.0964   32.1875 C   0  0  2  0  0  0  0  0  0  0  0  0
   21.7619   33.0113   30.7294 N   0  0  0  0  0  0  0  0  0  0  0  0
   23.3274   33.3357   38.6944 C   0  0  1  0  0  0  0  0  0  0  0  0
   24.5206   32.7266   39.3158 N   0  0  0  0  0  0  0  0  0  0  0  0
   19.5130   38.1562   30.0240 C   0  0  2  0  0  0  0  0  0  0  0  0
   18.7629   39.2847   30.4844 O   0  0  0  0  0  0  0  0  0  0  0  0
   21.5174   34.5914   32.6250 C   0  0  2  0  0  0  0  0  0  0  0  0
   22.3223   33.8060   39.7930 C   0  0  1  0  0  0  0  0  0  0  0  0
   22.9724   34.7707   40.6141 O   0  0  0  0  0  0  0  0  0  0  0  0
   18.6963   36.8034   30.1940 C   0  0  2  0  0  0  0  0  0  0  0  0
   19.4924   35.6484   29.7225 O   0  0  0  0  0  0  0  0  0  0  0  0
   21.2107   34.6891   34.1441 C   0  0  2  0  0  0  0  0  0  0  0  0
   21.2973   36.0609   34.5243 O   0  0  0  0  0  0  0  0  0  0  0  0
   21.0789   34.4482   39.0981 C   0  0  0  0  0  0  0  0  0  0  0  0
   21.4763   35.5608   38.2025 O   0  0  0  0  0  0  0  0  0  0  0  0
   17.3540   36.8106   29.4074 C   0  0  2  0  0  0  0  0  0  0  0  0
   16.5475   37.9034   29.8606 O   0  0  0  0  0  0  0  0  0  0  0  0
   22.2354   33.8950   34.9913 C   0  0  1  0  0  0  0  0  0  0  0  0
   21.8533   34.0230   36.3885 O   0  0  0  0  0  0  0  0  0  0  0  0
   16.5651   35.5361   29.6120 C   0  0  0  0  0  0  0  0  0  0  0  0
   21.8684   32.6549   40.6918 C   0  0  0  0  0  0  0  0  0  0  0  0
   24.4365   31.2617   39.0977 C   0  0  0  0  0  0  0  0  0  0  0  0
  1  2  1  1  0  0  0
  1  6  1  0  0  0  0
  1 23  1  0  0  0  0
  3  4  1  1  0  0  0
  3  8  1  0  0  0  0
  3 30  1  0  0  0  0
  5  9  1  0  0  0  0
  5 27  1  0  0  0  0
  5 31  1  1  0  0  0
  6  7  1  1  0  0  0
  6 11  1  0  0  0  0
  8 13  1  0  0  0  0
  9 10  1  6  0  0  0
  9 15  1  0  0  0  0
 11 12  1  6  0  0  0
 11 17  1  0  0  0  0
 13 14  1  6  0  0  0
 13 19  1  0  0  0  0
 15 16  1  1  0  0  0
 15 20  1  0  0  0  0
 16 34  1  0  0  0  0
 17 18  1  1  0  0  0
 17 22  1  0  0  0  0
 19  2  1  6  0  0  0
 19 24  1  0  0  0  0
 20 21  1  1  0  0  0
 20 26  1  0  0  0  0
 20 33  1  0  0  0  0
 22 23  1  6  0  0  0
 22 28  1  0  0  0  0
 24 25  1  1  0  0  0
 24 30  1  0  0  0  0
 26 27  1  0  0  0  0
 28 29  1  1  0  0  0
 28 32  1  0  0  0  0
 30 31  1  1  0  0  0
M  END
>  <CHROM.1>
-83.23510889,-73.46608817,-132.19863561,-58.64932148,154.61473839,-92.33358935
21.36021102,35.02723387,34.13492652,-2.36635313,-1.01088624,1.25394647

>  <Name>
ligand

>  <RI>
0

>  <Rbt.Current_Directory>
/home/itssahil/PROJECTS/Mol_Feturizer/New_Systems/rnas/4p3s

>  <Rbt.Executable>
rbdock ($Id: //depot/dev/client3/rdock/2013.1/src/exe/rbdock.cxx#4 $)

>  <Rbt.Library>
libRbt.so (2013.1, Build901 2013/11/27)

>  <Rbt.Parameter_File>
/export/apps/rDock/src/rDock_2013.1_src/data/scripts/dock_solv.prm

>  <Rbt.Receptor>
prm/blind_docking_60.prm

>  <SCORE>
6.21926

>  <SCORE.INTER>
0.41728

>  <SCORE.INTER.CONST>
1

>  <SCORE.INTER.POLAR>
0

>  <SCORE.INTER.ROT>
6

>  <SCORE.INTER.SOLV>
19.2714

>  <SCORE.INTER.VDW>
-13.7456

>  <SCORE.INTER.norm>
0.0122729

>  <SCORE.INTRA>
0.41515

>  <SCORE.INTRA.DIHEDRAL>
-4.70767

>  <SCORE.INTRA.DIHEDRAL.0>
15.8194

>  <SCORE.INTRA.POLAR>
0

>  <SCORE.INTRA.POLAR.0>
0

>  <SCORE.INTRA.REPUL>
0

>  <SCORE.INTRA.REPUL.0>
0

>  <SCORE.INTRA.SOLV>
3.44752

>  <SCORE.INTRA.SOLV.lig_0>
-71.9159

>  <SCORE.INTRA.VDW>
1.04523

>  <SCORE.INTRA.VDW.0>
-3.53918

>  <SCORE.INTRA.norm>
0.0122103

>  <SCORE.RESTR>
5.38683

>  <SCORE.RESTR.CAVITY>
5.38683

>  <SCORE.RESTR.norm>
0.158436

>  <SCORE.SYSTEM>
0

>  <SCORE.SYSTEM.CONST>
0

>  <SCORE.SYSTEM.DIHEDRAL>
0

>  <SCORE.SYSTEM.SOLV>
0

>  <SCORE.SYSTEM.norm>
0

>  <SCORE.heavy>
34

>  <SCORE.norm>
0.18292

>  <RMSD>
8.647

$$$$
ligand
 OpenBabel01301917533D
libRbt.so/2013.1/901 2013/11/27
 34 36  0  0  0  0  0  0  0  0999 V2000
   19.7014   34.6738   29.5445 C   0  0  2  0  0  0  0  0  0  0  0  0
   19.8820   34.6090   30.9627 O   0  0  0  0  0  0  0  0  0  0  0  0
   20.5464   31.2735   33.5771 C   0  0  2  0  0  0  0  0  0  0  0  0
   21.1025   30.0474   34.1654 N   0  0  0  0  0  0  0  0  0  0  0  0
   23.1133   33.5727   35.2975 C   0  0  2  0  0  0  0  0  0  0  0  0
   21.0793   35.0740   28.8949 C   0  0  2  0  0  0  0  0  0  0  0  0
   22.1236   34.0937   29.2334 N   0  0  0  0  0  0  0  0  0  0  0  0
   20.1759   30.9617   32.0822 C   0  0  0  0  0  0  0  0  0  0  0  0
   24.0062   32.7182   36.2814 C   0  0  2  0  0  0  0  0  0  0  0  0
   24.4242   31.5195   35.6513 O   0  0  0  0  0  0  0  0  0  0  0  0
   21.5055   36.4959   29.3699 C   0  0  1  0  0  0  0  0  0  0  0  0
   22.7648   36.8657   28.7785 O   0  0  0  0  0  0  0  0  0  0  0  0
   19.5642   32.2661   31.4605 C   0  0  2  0  0  0  0  0  0  0  0  0
   19.1931   32.0444   30.0337 N   0  0  0  0  0  0  0  0  0  0  0  0
   23.1500   32.3917   37.5630 C   0  0  1  0  0  0  0  0  0  0  0  0
   23.9183   31.5603   38.5113 N   0  0  0  0  0  0  0  0  0  0  0  0
   20.3842   37.4924   28.9932 C   0  0  2  0  0  0  0  0  0  0  0  0
   20.7616   38.8083   29.4103 O   0  0  0  0  0  0  0  0  0  0  0  0
   20.5790   33.4465   31.5381 C   0  0  2  0  0  0  0  0  0  0  0  0
   22.7174   33.7305   38.2403 C   0  0  1  0  0  0  0  0  0  0  0  0
   23.8902   34.4314   38.6409 O   0  0  0  0  0  0  0  0  0  0  0  0
   19.0316   37.0257   29.6853 C   0  0  2  0  0  0  0  0  0  0  0  0
   18.6646   35.6600   29.2493 O   0  0  0  0  0  0  0  0  0  0  0  0
   20.9737   33.6824   33.0213 C   0  0  2  0  0  0  0  0  0  0  0  0
   21.9247   34.7444   33.0612 O   0  0  0  0  0  0  0  0  0  0  0  0
   21.9138   34.5828   37.2063 C   0  0  0  0  0  0  0  0  0  0  0  0
   22.7022   34.8190   35.9731 O   0  0  0  0  0  0  0  0  0  0  0  0
   17.8364   37.9674   29.3609 C   0  0  2  0  0  0  0  0  0  0  0  0
   18.0417   39.2293   30.0055 O   0  0  0  0  0  0  0  0  0  0  0  0
   21.6332   32.4294   33.6485 C   0  0  1  0  0  0  0  0  0  0  0  0
   21.9417   32.7354   35.0362 O   0  0  0  0  0  0  0  0  0  0  0  0
   16.5187   37.4067   29.8485 C   0  0  0  0  0  0  0  0  0  0  0  0
   21.8617   33.4976   39.4863 C   0  0  0  0  0  0  0  0  0  0  0  0
   23.7856   30.1490   38.0737 C   0  0  0  0  0  0  0  0  0  0  0  0
  1  2  1  1  0  0  0
  1  6  1  0  0  0  0
  1 23  1  0  0  0  0
  3  4  1  6  0  0  0
  3  8  1  0  0  0  0
  3 30  1  0  0  0  0
  5  9  1  0  0  0  0
  5 27  1  0  0  0  0
  5 31  1  1  0  0  0
  6  7  1  1  0  0  0
  6 11  1  0  0  0  0
  8 13  1  0  0  0  0
  9 10  1  6  0  0  0
  9 15  1  0  0  0  0
 11 12  1  6  0  0  0
 11 17  1  0  0  0  0
 13 14  1  6  0  0  0
 13 19  1  0  0  0  0
 15 16  1  1  0  0  0
 15 20  1  0  0  0  0
 16 34  1  0  0  0  0
 17 18  1  1  0  0  0
 17 22  1  0  0  0  0
 19  2  1  1  0  0  0
 19 24  1  0  0  0  0
 20 21  1  1  0  0  0
 20 26  1  0  0  0  0
 20 33  1  0  0  0  0
 22 23  1  6  0  0  0
 22 28  1  0  0  0  0
 24 25  1  6  0  0  0
 24 30  1  0  0  0  0
 26 27  1  0  0  0  0
 28 29  1  1  0  0  0
 28 32  1  0  0  0  0
 30 31  1  1  0  0  0
M  END
>  <CHROM.1>
-75.97284370,-74.33207622,-83.49663151,-69.03745102,167.64936107,-124.26982991
21.22833534,34.21910872,33.00789415,2.80612507,-1.16584794,0.12987651

>  <Name>
ligand

>  <RI>
0

>  <Rbt.Current_Directory>
/home/itssahil/PROJECTS/Mol_Feturizer/New_Systems/rnas/4p3s

>  <Rbt.Executable>
rbdock ($Id: //depot/dev/client3/rdock/2013.1/src/exe/rbdock.cxx#4 $)

>  <Rbt.Library>
libRbt.so (2013.1, Build901 2013/11/27)

>  <Rbt.Parameter_File>
/export/apps/rDock/src/rDock_2013.1_src/data/scripts/dock_solv.prm

>  <Rbt.Receptor>
prm/blind_docking_100.prm

>  <SCORE>
1.49224

>  <SCORE.INTER>
-1.1686

>  <SCORE.INTER.CONST>
1

>  <SCORE.INTER.POLAR>
0

>  <SCORE.INTER.ROT>
6

>  <SCORE.INTER.SOLV>
13.8431

>  <SCORE.INTER.VDW>
-12.9934

>  <SCORE.INTER.norm>
-0.0343706

>  <SCORE.INTRA>
1.08193

>  <SCORE.INTRA.DIHEDRAL>
-5.09557

>  <SCORE.INTRA.DIHEDRAL.0>
15.8194

>  <SCORE.INTRA.POLAR>
0

>  <SCORE.INTRA.POLAR.0>
0

>  <SCORE.INTRA.REPUL>
0

>  <SCORE.INTRA.REPUL.0>
0

>  <SCORE.INTRA.SOLV>
2.34816

>  <SCORE.INTRA.SOLV.lig_0>
-71.9159

>  <SCORE.INTRA.VDW>
2.45563

>  <SCORE.INTRA.VDW.0>
-3.53918

>  <SCORE.INTRA.norm>
0.0318214

>  <SCORE.RESTR>
1.57891

>  <SCORE.RESTR.CAVITY>
1.57891

>  <SCORE.RESTR.norm>
0.0464387

>  <SCORE.SYSTEM>
0

>  <SCORE.SYSTEM.CONST>
0

>  <SCORE.SYSTEM.DIHEDRAL>
0

>  <SCORE.SYSTEM.SOLV>
0

>  <SCORE.SYSTEM.norm>
0

>  <SCORE.heavy>
34

>  <SCORE.norm>
0.0438895

>  <RMSD>
8.654

$$$$
ligand
 OpenBabel01301917533D
libRbt.so/2013.1/901 2013/11/27
 34 36  0  0  0  0  0  0  0  0999 V2000
   18.6142   32.5134   38.2801 C   0  0  2  0  0  0  0  0  0  0  0  0
   19.8642   31.8254   38.1694 O   0  0  0  0  0  0  0  0  0  0  0  0
   20.6559   27.7190   37.2140 C   0  0  2  0  0  0  0  0  0  0  0  0
   20.8210   26.2636   37.3291 N   0  0  0  0  0  0  0  0  0  0  0  0
   18.4557   28.0469   35.0271 C   0  0  2  0  0  0  0  0  0  0  0  0
   18.8437   34.0132   37.8572 C   0  0  2  0  0  0  0  0  0  0  0  0
   19.3540   34.0979   36.4794 N   0  0  0  0  0  0  0  0  0  0  0  0
   21.5439   28.3906   38.3229 C   0  0  0  0  0  0  0  0  0  0  0  0
   17.2117   27.4816   34.2345 C   0  0  2  0  0  0  0  0  0  0  0  0
   16.0057   27.9554   34.8085 O   0  0  0  0  0  0  0  0  0  0  0  0
   19.8374   34.7034   38.8396 C   0  0  1  0  0  0  0  0  0  0  0  0
   20.0502   36.0747   38.4566 O   0  0  0  0  0  0  0  0  0  0  0  0
   21.3820   29.9454   38.1866 C   0  0  2  0  0  0  0  0  0  0  0  0
   22.1964   30.6510   39.2167 N   0  0  0  0  0  0  0  0  0  0  0  0
   17.2643   25.9081   34.2956 C   0  0  1  0  0  0  0  0  0  0  0  0
   16.1037   25.3154   33.6010 N   0  0  0  0  0  0  0  0  0  0  0  0
   19.2629   34.5939   40.2714 C   0  0  2  0  0  0  0  0  0  0  0  0
   20.1557   35.2333   41.1891 O   0  0  0  0  0  0  0  0  0  0  0  0
   19.8899   30.3645   38.3521 C   0  0  2  0  0  0  0  0  0  0  0  0
   18.5962   25.4182   33.6443 C   0  0  1  0  0  0  0  0  0  0  0  0
   18.6049   25.8228   32.2792 O   0  0  0  0  0  0  0  0  0  0  0  0
   19.0625   33.0576   40.6259 C   0  0  2  0  0  0  0  0  0  0  0  0
   18.1452   32.4128   39.6601 O   0  0  0  0  0  0  0  0  0  0  0  0
   19.0333   29.6312   37.2845 C   0  0  2  0  0  0  0  0  0  0  0  0
   17.6712   30.0071   37.4776 O   0  0  0  0  0  0  0  0  0  0  0  0
   19.7980   26.0696   34.4013 C   0  0  0  0  0  0  0  0  0  0  0  0
   19.6968   27.5487   34.4023 O   0  0  0  0  0  0  0  0  0  0  0  0
   18.4810   32.8426   42.0528 C   0  0  2  0  0  0  0  0  0  0  0  0
   19.3208   33.4998   43.0084 O   0  0  0  0  0  0  0  0  0  0  0  0
   19.1271   28.0920   37.4280 C   0  0  1  0  0  0  0  0  0  0  0  0
   18.3189   27.4961   36.3762 O   0  0  0  0  0  0  0  0  0  0  0  0
   18.4111   31.3784   42.4266 C   0  0  0  0  0  0  0  0  0  0  0  0
   18.7323   23.8954   33.6829 C   0  0  0  0  0  0  0  0  0  0  0  0
   15.0838   24.9986   34.6307 C   0  0  0  0  0  0  0  0  0  0  0  0
  1  2  1  1  0  0  0
  1  6  1  0  0  0  0
  1 23  1  0  0  0  0
  3  4  1  1  0  0  0
  3  8  1  0  0  0  0
  3 30  1  0  0  0  0
  5  9  1  0  0  0  0
  5 27  1  0  0  0  0
  5 31  1  1  0  0  0
  6  7  1  6  0  0  0
  6 11  1  0  0  0  0
  8 13  1  0  0  0  0
  9 10  1  1  0  0  0
  9 15  1  0  0  0  0
 11 12  1  6  0  0  0
 11 17  1  0  0  0  0
 13 14  1  1  0  0  0
 13 19  1  0  0  0  0
 15 16  1  6  0  0  0
 15 20  1  0  0  0  0
 16 34  1  0  0  0  0
 17 18  1  1  0  0  0
 17 22  1  0  0  0  0
 19  2  1  6  0  0  0
 19 24  1  0  0  0  0
 20 21  1  6  0  0  0
 20 26  1  0  0  0  0
 20 33  1  0  0  0  0
 22 23  1  6  0  0  0
 22 28  1  0  0  0  0
 24 25  1  1  0  0  0
 24 30  1  0  0  0  0
 26 27  1  0  0  0  0
 28 29  1  1  0  0  0
 28 32  1  0  0  0  0
 30 31  1  6  0  0  0
M  END
>  <CHROM.1>
-172.68105155,-179.32653782,-97.12045083,-55.32793177,-70.17347556,-165.24682534
18.96872601,29.81720685,37.34637874,1.34753804,-0.81030353,0.49243789

>  <Name>
ligand

>  <RI>
0

>  <Rbt.Current_Directory>
/home/itssahil/PROJECTS/Mol_Feturizer/New_Systems/rnas/4p3s

>  <Rbt.Executable>
rbdock ($Id: //depot/dev/client3/rdock/2013.1/src/exe/rbdock.cxx#4 $)

>  <Rbt.Library>
libRbt.so (2013.1, Build901 2013/11/27)

>  <Rbt.Parameter_File>
/export/apps/rDock/src/rDock_2013.1_src/data/scripts/dock_solv.prm

>  <Rbt.Receptor>
prm/pocket_docking_6.prm

>  <SCORE>
-9.70091

>  <SCORE.INTER>
-4.58256

>  <SCORE.INTER.CONST>
1

>  <SCORE.INTER.POLAR>
0

>  <SCORE.INTER.ROT>
6

>  <SCORE.INTER.SOLV>
12.9604

>  <SCORE.INTER.VDW>
-14.9752

>  <SCORE.INTER.norm>
-0.134781

>  <SCORE.INTRA>
-5.11836

>  <SCORE.INTRA.DIHEDRAL>
-13.0274

>  <SCORE.INTRA.DIHEDRAL.0>
15.8194

>  <SCORE.INTRA.POLAR>
0

>  <SCORE.INTRA.POLAR.0>
0

>  <SCORE.INTRA.REPUL>
0

>  <SCORE.INTRA.REPUL.0>
0

>  <SCORE.INTRA.SOLV>
-0.00833007

>  <SCORE.INTRA.SOLV.lig_0>
-71.9159

>  <SCORE.INTRA.VDW>
1.39953

>  <SCORE.INTRA.VDW.0>
-3.53918

>  <SCORE.INTRA.norm>
-0.15054

>  <SCORE.RESTR>
0

>  <SCORE.RESTR.CAVITY>
0

>  <SCORE.RESTR.norm>
0

>  <SCORE.SYSTEM>
0

>  <SCORE.SYSTEM.CONST>
0

>  <SCORE.SYSTEM.DIHEDRAL>
0

>  <SCORE.SYSTEM.SOLV>
0

>  <SCORE.SYSTEM.norm>
0

>  <SCORE.heavy>
34

>  <SCORE.norm>
-0.285321

>  <RMSD>
8.655

$$$$
ligand
 OpenBabel01301917533D
libRbt.so/2013.1/901 2013/11/27
 34 36  0  0  0  0  0  0  0  0999 V2000
   19.1112   36.3447   32.1557 C   0  0  2  0  0  0  0  0  0  0  0  0
   19.8228   35.1984   31.6785 O   0  0  0  0  0  0  0  0  0  0  0  0
   22.6024   32.8488   33.9491 C   0  0  2  0  0  0  0  0  0  0  0  0
   23.8475   32.3438   34.5434 N   0  0  0  0  0  0  0  0  0  0  0  0
   22.6285   35.2980   36.7842 C   0  0  2  0  0  0  0  0  0  0  0  0
   17.6481   36.2873   31.5752 C   0  0  2  0  0  0  0  0  0  0  0  0
   16.9661   35.0516   31.9923 N   0  0  0  0  0  0  0  0  0  0  0  0
   22.8058   32.9103   32.3921 C   0  0  0  0  0  0  0  0  0  0  0  0
   23.9026   34.6622   37.4681 C   0  0  2  0  0  0  0  0  0  0  0  0
   24.8550   34.2918   36.4861 O   0  0  0  0  0  0  0  0  0  0  0  0
   17.6820   36.3813   30.0199 C   0  0  1  0  0  0  0  0  0  0  0  0
   16.3466   36.3289   29.4850 O   0  0  0  0  0  0  0  0  0  0  0  0
   21.4690   33.4314   31.7568 C   0  0  2  0  0  0  0  0  0  0  0  0
   21.5917   33.5212   30.2738 N   0  0  0  0  0  0  0  0  0  0  0  0
   23.4409   33.3970   38.2857 C   0  0  1  0  0  0  0  0  0  0  0  0
   24.5955   32.7322   38.9229 N   0  0  0  0  0  0  0  0  0  0  0  0
   18.4030   37.6917   29.6261 C   0  0  2  0  0  0  0  0  0  0  0  0
   18.4343   37.8037   28.1998 O   0  0  0  0  0  0  0  0  0  0  0  0
   21.1002   34.8385   32.3166 C   0  0  2  0  0  0  0  0  0  0  0  0
   22.4042   33.8401   39.3660 C   0  0  1  0  0  0  0  0  0  0  0  0
   23.0426   34.7507   40.2552 O   0  0  0  0  0  0  0  0  0  0  0  0
   19.8677   37.6748   30.2429 C   0  0  2  0  0  0  0  0  0  0  0  0
   19.8138   37.5480   31.7164 O   0  0  0  0  0  0  0  0  0  0  0  0
   20.9734   34.7550   33.8620 C   0  0  2  0  0  0  0  0  0  0  0  0
   20.6671   36.0592   34.3507 O   0  0  0  0  0  0  0  0  0  0  0  0
   21.2031   34.5425   38.6551 C   0  0  0  0  0  0  0  0  0  0  0  0
   21.6593   35.6852   37.8280 O   0  0  0  0  0  0  0  0  0  0  0  0
   20.6757   38.9603   29.9039 C   0  0  2  0  0  0  0  0  0  0  0  0
   20.9763   38.9731   28.5040 O   0  0  0  0  0  0  0  0  0  0  0  0
   22.2960   34.2969   34.5248 C   0  0  1  0  0  0  0  0  0  0  0  0
   22.0733   34.2235   35.9600 O   0  0  0  0  0  0  0  0  0  0  0  0
   21.9844   39.0284   30.6597 C   0  0  0  0  0  0  0  0  0  0  0  0
   21.8906   32.6602   40.1924 C   0  0  0  0  0  0  0  0  0  0  0  0
   24.3881   31.2683   38.8015 C   0  0  0  0  0  0  0  0  0  0  0  0
  1  2  1  6  0  0  0
  1  6  1  0  0  0  0
  1 23  1  0  0  0  0
  3  4  1  1  0  0  0
  3  8  1  0  0  0  0
  3 30  1  0  0  0  0
  5  9  1  0  0  0  0
  5 27  1  0  0  0  0
  5 31  1  6  0  0  0
  6  7  1  6  0  0  0
  6 11  1  0  0  0  0
  8 13  1  0  0  0  0
  9 10  1  6  0  0  0
  9 15  1  0  0  0  0
 11 12  1  1  0  0  0
 11 17  1  0  0  0  0
 13 14  1  6  0  0  0
 13 19  1  0  0  0  0
 15 16  1  1  0  0  0
 15 20  1  0  0  0  0
 16 34  1  0  0  0  0
 17 18  1  6  0  0  0
 17 22  1  0  0  0  0
 19  2  1  6  0  0  0
 19 24  1  0  0  0  0
 20 21  1  1  0  0  0
 20 26  1  0  0  0  0
 20 33  1  0  0  0  0
 22 23  1  1  0  0  0
 22 28  1  0  0  0  0
 24 25  1  1  0  0  0
 24 30  1  0  0  0  0
 26 27  1  0  0  0  0
 28 29  1  6  0  0  0
 28 32  1  0  0  0  0
 30 31  1  1  0  0  0
M  END
>  <CHROM.1>
-165.73214771,169.86676464,-140.12409565,-68.94840755,140.43447812,-103.95326004
21.20814230,35.19417018,33.90444106,2.08309930,0.57410811,-1.45866857

>  <Name>
ligand

>  <RI>
0

>  <Rbt.Current_Directory>
/home/itssahil/PROJECTS/Mol_Feturizer/New_Systems/rnas/4p3s

>  <Rbt.Executable>
rbdock ($Id: //depot/dev/client3/rdock/2013.1/src/exe/rbdock.cxx#4 $)

>  <Rbt.Library>
libRbt.so (2013.1, Build901 2013/11/27)

>  <Rbt.Parameter_File>
/export/apps/rDock/src/rDock_2013.1_src/data/scripts/dock_solv.prm

>  <Rbt.Receptor>
prm/blind_docking_60.prm

>  <SCORE>
9.48421

>  <SCORE.INTER>
1.58079

>  <SCORE.INTER.CONST>
1

>  <SCORE.INTER.POLAR>
0

>  <SCORE.INTER.ROT>
6

>  <SCORE.INTER.SOLV>
17.4043

>  <SCORE.INTER.VDW>
-12.3476

>  <SCORE.INTER.norm>
0.0464937

>  <SCORE.INTRA>
0.600949

>  <SCORE.INTRA.DIHEDRAL>
-1.89093

>  <SCORE.INTRA.DIHEDRAL.0>
15.8194

>  <SCORE.INTRA.POLAR>
0

>  <SCORE.INTRA.POLAR.0>
0

>  <SCORE.INTRA.REPUL>
0

>  <SCORE.INTRA.REPUL.0>
0

>  <SCORE.INTRA.SOLV>
-0.0784209

>  <SCORE.INTRA.SOLV.lig_0>
-71.9159

>  <SCORE.INTRA.VDW>
1.58562

>  <SCORE.INTRA.VDW.0>
-3.53918

>  <SCORE.INTRA.norm>
0.017675

>  <SCORE.RESTR>
7.30248

>  <SCORE.RESTR.CAVITY>
7.30248

>  <SCORE.RESTR.norm>
0.214779

>  <SCORE.SYSTEM>
0

>  <SCORE.SYSTEM.CONST>
0

>  <SCORE.SYSTEM.DIHEDRAL>
0

>  <SCORE.SYSTEM.SOLV>
0

>  <SCORE.SYSTEM.norm>
0

>  <SCORE.heavy>
34

>  <SCORE.norm>
0.278947

>  <RMSD>
8.656

$$$$
ligand
 OpenBabel01301917533D
libRbt.so/2013.1/901 2013/11/27
 34 36  0  0  0  0  0  0  0  0999 V2000
   19.6952   23.0532   32.2485 C   0  0  2  0  0  0  0  0  0  0  0  0
   18.5503   22.3725   31.7249 O   0  0  0  0  0  0  0  0  0  0  0  0
   14.7025   23.5663   33.1986 C   0  0  2  0  0  0  0  0  0  0  0  0
   13.4036   23.5558   33.8851 N   0  0  0  0  0  0  0  0  0  0  0  0
   15.3649   25.9518   34.4816 C   0  0  2  0  0  0  0  0  0  0  0  0
   20.8577   22.9360   31.1923 C   0  0  2  0  0  0  0  0  0  0  0  0
   20.4576   23.5243   29.9039 N   0  0  0  0  0  0  0  0  0  0  0  0
   14.7634   22.3000   32.2701 C   0  0  0  0  0  0  0  0  0  0  0  0
   16.6883   26.6899   34.0352 C   0  0  2  0  0  0  0  0  0  0  0  0
   17.3837   25.9149   33.0737 O   0  0  0  0  0  0  0  0  0  0  0  0
   21.2594   21.4428   30.9974 C   0  0  1  0  0  0  0  0  0  0  0  0
   22.3218   21.3311   30.0325 O   0  0  0  0  0  0  0  0  0  0  0  0
   16.1430   22.3226   31.5228 C   0  0  2  0  0  0  0  0  0  0  0  0
   16.2732   21.1406   30.6238 N   0  0  0  0  0  0  0  0  0  0  0  0
   17.5840   26.9071   35.3130 C   0  0  1  0  0  0  0  0  0  0  0  0
   18.8583   27.5631   34.9570 N   0  0  0  0  0  0  0  0  0  0  0  0
   21.6740   20.8659   32.3712 C   0  0  2  0  0  0  0  0  0  0  0  0
   22.0589   19.4968   32.2123 O   0  0  0  0  0  0  0  0  0  0  0  0
   17.3248   22.3134   32.5391 C   0  0  2  0  0  0  0  0  0  0  0  0
   16.7959   27.7741   36.3452 C   0  0  1  0  0  0  0  0  0  0  0  0
   16.5265   29.0417   35.7552 O   0  0  0  0  0  0  0  0  0  0  0  0
   20.4537   21.0165   33.3784 C   0  0  2  0  0  0  0  0  0  0  0  0
   20.0646   22.4372   33.5207 O   0  0  0  0  0  0  0  0  0  0  0  0
   17.1952   23.5403   33.4823 C   0  0  2  0  0  0  0  0  0  0  0  0
   18.2684   23.4910   34.4201 O   0  0  0  0  0  0  0  0  0  0  0  0
   15.4546   27.0515   36.6919 C   0  0  0  0  0  0  0  0  0  0  0  0
   14.6550   26.7844   35.4723 O   0  0  0  0  0  0  0  0  0  0  0  0
   20.7760   20.4656   34.7972 C   0  0  2  0  0  0  0  0  0  0  0  0
   20.4186   19.0804   34.8578 O   0  0  0  0  0  0  0  0  0  0  0  0
   15.8667   23.5179   34.2778 C   0  0  1  0  0  0  0  0  0  0  0  0
   15.8239   24.7111   35.1078 O   0  0  0  0  0  0  0  0  0  0  0  0
   20.0072   21.1905   35.8798 C   0  0  0  0  0  0  0  0  0  0  0  0
   17.5941   28.0139   37.6275 C   0  0  0  0  0  0  0  0  0  0  0  0
   19.8993   26.5079   34.8955 C   0  0  0  0  0  0  0  0  0  0  0  0
  1  2  1  6  0  0  0
  1  6  1  0  0  0  0
  1 23  1  0  0  0  0
  3  4  1  1  0  0  0
  3  8  1  0  0  0  0
  3 30  1  0  0  0  0
  5  9  1  0  0  0  0
  5 27  1  0  0  0  0
  5 31  1  1  0  0  0
  6  7  1  6  0  0  0
  6 11  1  0  0  0  0
  8 13  1  0  0  0  0
  9 10  1  6  0  0  0
  9 15  1  0  0  0  0
 11 12  1  6  0  0  0
 11 17  1  0  0  0  0
 13 14  1  6  0  0  0
 13 19  1  0  0  0  0
 15 16  1  6  0  0  0
 15 20  1  0  0  0  0
 16 34  1  0  0  0  0
 17 18  1  6  0  0  0
 17 22  1  0  0  0  0
 19  2  1  6  0  0  0
 19 24  1  0  0  0  0
 20 21  1  6  0  0  0
 20 26  1  0  0  0  0
 20 33  1  0  0  0  0
 22 23  1  1  0  0  0
 22 28  1  0  0  0  0
 24 25  1  1  0  0  0
 24 30  1  0  0  0  0
 26 27  1  0  0  0  0
 28 29  1  6  0  0  0
 28 32  1  0  0  0  0
 30 31  1  1  0  0  0
M  END
>  <CHROM.1>
178.86266658,147.58078041,-100.37526281,-89.99359494,-32.49482819,-95.37537097
18.12155106,23.75818710,33.63910896,-0.97208031,-0.12076132,0.59534389

>  <Name>
ligand

>  <RI>
0

>  <Rbt.Current_Directory>
/home/itssahil/PROJECTS/Mol_Feturizer/New_Systems/rnas/4p3s

>  <Rbt.Executable>
rbdock ($Id: //depot/dev/client3/rdock/2013.1/src/exe/rbdock.cxx#4 $)

>  <Rbt.Library>
libRbt.so (2013.1, Build901 2013/11/27)

>  <Rbt.Parameter_File>
/export/apps/rDock/src/rDock_2013.1_src/data/scripts/dock_solv.prm

>  <Rbt.Receptor>
prm/blind_docking_60.prm

>  <SCORE>
4.23933

>  <SCORE.INTER>
-11.3138

>  <SCORE.INTER.CONST>
1

>  <SCORE.INTER.POLAR>
0

>  <SCORE.INTER.ROT>
6

>  <SCORE.INTER.SOLV>
22.8663

>  <SCORE.INTER.VDW>
-22.7647

>  <SCORE.INTER.norm>
-0.33276

>  <SCORE.INTRA>
9.17278

>  <SCORE.INTRA.DIHEDRAL>
-0.445792

>  <SCORE.INTRA.DIHEDRAL.0>
15.8194

>  <SCORE.INTRA.POLAR>
0

>  <SCORE.INTRA.POLAR.0>
0

>  <SCORE.INTRA.REPUL>
0

>  <SCORE.INTRA.REPUL.0>
0

>  <SCORE.INTRA.SOLV>
0.0604211

>  <SCORE.INTRA.SOLV.lig_0>
-71.9159

>  <SCORE.INTRA.VDW>
9.36547

>  <SCORE.INTRA.VDW.0>
-3.53918

>  <SCORE.INTRA.norm>
0.269788

>  <SCORE.RESTR>
6.38037

>  <SCORE.RESTR.CAVITY>
6.38037

>  <SCORE.RESTR.norm>
0.187658

>  <SCORE.SYSTEM>
0

>  <SCORE.SYSTEM.CONST>
0

>  <SCORE.SYSTEM.DIHEDRAL>
0

>  <SCORE.SYSTEM.SOLV>
0

>  <SCORE.SYSTEM.norm>
0

>  <SCORE.heavy>
34

>  <SCORE.norm>
0.124686

>  <RMSD>
8.664

$$$$
ligand
 OpenBabel01301917533D
libRbt.so/2013.1/901 2013/11/27
 34 36  0  0  0  0  0  0  0  0999 V2000
   18.9688   36.1267   31.5771 C   0  0  2  0  0  0  0  0  0  0  0  0
   18.8198   34.8088   31.0394 O   0  0  0  0  0  0  0  0  0  0  0  0
   21.0868   31.2835   31.9533 C   0  0  2  0  0  0  0  0  0  0  0  0
   22.1412   30.2604   31.9532 N   0  0  0  0  0  0  0  0  0  0  0  0
   23.5264   32.3857   34.1702 C   0  0  2  0  0  0  0  0  0  0  0  0
   17.6236   36.9085   31.3323 C   0  0  2  0  0  0  0  0  0  0  0  0
   16.4920   36.2195   31.9732 N   0  0  0  0  0  0  0  0  0  0  0  0
   20.6006   31.4699   30.4708 C   0  0  0  0  0  0  0  0  0  0  0  0
   23.6266   32.0336   35.7068 C   0  0  2  0  0  0  0  0  0  0  0  0
   23.0305   30.7736   35.9629 O   0  0  0  0  0  0  0  0  0  0  0  0
   17.3608   37.0621   29.8038 C   0  0  1  0  0  0  0  0  0  0  0  0
   16.1318   37.7762   29.5755 O   0  0  0  0  0  0  0  0  0  0  0  0
   19.4611   32.5487   30.4746 C   0  0  2  0  0  0  0  0  0  0  0  0
   18.9536   32.7823   29.0925 N   0  0  0  0  0  0  0  0  0  0  0  0
   22.8865   33.1630   36.5185 C   0  0  1  0  0  0  0  0  0  0  0  0
   22.9124   32.8735   37.9664 N   0  0  0  0  0  0  0  0  0  0  0  0
   18.5696   37.7912   29.1719 C   0  0  2  0  0  0  0  0  0  0  0  0
   18.3427   37.9535   27.7683 O   0  0  0  0  0  0  0  0  0  0  0  0
   19.9781   33.8997   31.0551 C   0  0  2  0  0  0  0  0  0  0  0  0
   23.5745   34.5338   36.2257 C   0  0  1  0  0  0  0  0  0  0  0  0
   24.9255   34.4629   36.6696 O   0  0  0  0  0  0  0  0  0  0  0  0
   19.8838   36.9440   29.4570 C   0  0  2  0  0  0  0  0  0  0  0  0
   20.0947   36.7787   30.9124 O   0  0  0  0  0  0  0  0  0  0  0  0
   20.5119   33.6650   32.4943 C   0  0  2  0  0  0  0  0  0  0  0  0
   21.0066   34.9075   32.9894 O   0  0  0  0  0  0  0  0  0  0  0  0
   23.5321   34.8015   34.6868 C   0  0  0  0  0  0  0  0  0  0  0  0
   24.1643   33.6949   33.9293 O   0  0  0  0  0  0  0  0  0  0  0  0
   21.1618   37.6016   28.8614 C   0  0  2  0  0  0  0  0  0  0  0  0
   21.0574   39.0249   28.9765 O   0  0  0  0  0  0  0  0  0  0  0  0
   21.6774   32.6455   32.5176 C   0  0  1  0  0  0  0  0  0  0  0  0
   22.0904   32.4720   33.9011 O   0  0  0  0  0  0  0  0  0  0  0  0
   21.3471   37.2673   27.3976 C   0  0  0  0  0  0  0  0  0  0  0  0
   22.8982   35.6894   36.9647 C   0  0  0  0  0  0  0  0  0  0  0  0
   21.6251   33.3413   38.5363 C   0  0  0  0  0  0  0  0  0  0  0  0
  1  2  1  6  0  0  0
  1  6  1  0  0  0  0
  1 23  1  0  0  0  0
  3  4  1  6  0  0  0
  3  8  1  0  0  0  0
  3 30  1  0  0  0  0
  5  9  1  0  0  0  0
  5 27  1  0  0  0  0
  5 31  1  1  0  0  0
  6  7  1  6  0  0  0
  6 11  1  0  0  0  0
  8 13  1  0  0  0  0
  9 10  1  6  0  0  0
  9 15  1  0  0  0  0
 11 12  1  1  0  0  0
 11 17  1  0  0  0  0
 13 14  1  6  0  0  0
 13 19  1  0  0  0  0
 15 16  1  1  0  0  0
 15 20  1  0  0  0  0
 16 34  1  0  0  0  0
 17 18  1  6  0  0  0
 17 22  1  0  0  0  0
 19  2  1  1  0  0  0
 19 24  1  0  0  0  0
 20 21  1  1  0  0  0
 20 26  1  0  0  0  0
 20 33  1  0  0  0  0
 22 23  1  1  0  0  0
 22 28  1  0  0  0  0
 24 25  1  6  0  0  0
 24 30  1  0  0  0  0
 26 27  1  0  0  0  0
 28 29  1  6  0  0  0
 28 32  1  0  0  0  0
 30 31  1  1  0  0  0
M  END
>  <CHROM.1>
175.71378626,177.16789227,-144.40375364,36.24419854,105.46823425,-173.53357549
20.89582361,34.62056606,32.41840443,-2.87916891,1.03587962,-2.89546902

>  <Name>
ligand

>  <RI>
0

>  <Rbt.Current_Directory>
/home/itssahil/PROJECTS/Mol_Feturizer/New_Systems/rnas/4p3s

>  <Rbt.Executable>
rbdock ($Id: //depot/dev/client3/rdock/2013.1/src/exe/rbdock.cxx#4 $)

>  <Rbt.Library>
libRbt.so (2013.1, Build901 2013/11/27)

>  <Rbt.Parameter_File>
/export/apps/rDock/src/rDock_2013.1_src/data/scripts/dock_solv.prm

>  <Rbt.Receptor>
prm/blind_docking_60.prm

>  <SCORE>
33.012

>  <SCORE.INTER>
28.2551

>  <SCORE.INTER.CONST>
1

>  <SCORE.INTER.POLAR>
0

>  <SCORE.INTER.ROT>
6

>  <SCORE.INTER.SOLV>
17.8747

>  <SCORE.INTER.VDW>
5.27851

>  <SCORE.INTER.norm>
0.831033

>  <SCORE.INTRA>
-2.31143

>  <SCORE.INTRA.DIHEDRAL>
-6.71512

>  <SCORE.INTRA.DIHEDRAL.0>
15.8194

>  <SCORE.INTRA.POLAR>
0

>  <SCORE.INTRA.POLAR.0>
0

>  <SCORE.INTRA.REPUL>
0

>  <SCORE.INTRA.REPUL.0>
0

>  <SCORE.INTRA.SOLV>
-1.2794

>  <SCORE.INTRA.SOLV.lig_0>
-71.9159

>  <SCORE.INTRA.VDW>
1.68583

>  <SCORE.INTRA.VDW.0>
-3.53918

>  <SCORE.INTRA.norm>
-0.0679833

>  <SCORE.RESTR>
7.06829

>  <SCORE.RESTR.CAVITY>
7.06829

>  <SCORE.RESTR.norm>
0.207891

>  <SCORE.SYSTEM>
0

>  <SCORE.SYSTEM.CONST>
0

>  <SCORE.SYSTEM.DIHEDRAL>
0

>  <SCORE.SYSTEM.SOLV>
0

>  <SCORE.SYSTEM.norm>
0

>  <SCORE.heavy>
34

>  <SCORE.norm>
0.970941

>  <RMSD>
8.666

$$$$
ligand
 OpenBabel01301917533D
libRbt.so/2013.1/901 2013/11/27
 34 36  0  0  0  0  0  0  0  0999 V2000
   21.2122   34.8082   30.1504 C   0  0  2  0  0  0  0  0  0  0  0  0
   22.5033   34.4541   30.6562 O   0  0  0  0  0  0  0  0  0  0  0  0
   21.3023   31.7567   33.7681 C   0  0  2  0  0  0  0  0  0  0  0  0
   21.2615   30.6095   34.6851 N   0  0  0  0  0  0  0  0  0  0  0  0
   23.6301   34.0085   35.8743 C   0  0  2  0  0  0  0  0  0  0  0  0
   21.4175   35.7519   28.9062 C   0  0  2  0  0  0  0  0  0  0  0  0
   22.2090   35.0802   27.8629 N   0  0  0  0  0  0  0  0  0  0  0  0
   21.3558   31.1954   32.3014 C   0  0  0  0  0  0  0  0  0  0  0  0
   24.3106   33.1778   37.0328 C   0  0  2  0  0  0  0  0  0  0  0  0
   24.8240   31.9574   36.5273 O   0  0  0  0  0  0  0  0  0  0  0  0
   22.1189   37.0734   29.3429 C   0  0  1  0  0  0  0  0  0  0  0  0
   22.3088   37.9390   28.2084 O   0  0  0  0  0  0  0  0  0  0  0  0
   21.3798   32.4213   31.3222 C   0  0  2  0  0  0  0  0  0  0  0  0
   21.4370   31.9613   29.9053 N   0  0  0  0  0  0  0  0  0  0  0  0
   23.2244   32.8968   38.1389 C   0  0  1  0  0  0  0  0  0  0  0  0
   23.7896   32.0890   39.2384 N   0  0  0  0  0  0  0  0  0  0  0  0
   21.2550   37.7462   30.4352 C   0  0  2  0  0  0  0  0  0  0  0  0
   21.8761   38.9696   30.8421 O   0  0  0  0  0  0  0  0  0  0  0  0
   22.6120   33.3330   31.6046 C   0  0  2  0  0  0  0  0  0  0  0  0
   22.6896   34.2588   38.6841 C   0  0  1  0  0  0  0  0  0  0  0  0
   23.7752   34.9629   39.2784 O   0  0  0  0  0  0  0  0  0  0  0  0
   21.0956   36.7386   31.6539 C   0  0  2  0  0  0  0  0  0  0  0  0
   20.4616   35.4770   31.2106 O   0  0  0  0  0  0  0  0  0  0  0  0
   22.5623   33.8143   33.0801 C   0  0  2  0  0  0  0  0  0  0  0  0
   23.7147   34.6191   33.3207 O   0  0  0  0  0  0  0  0  0  0  0  0
   22.1061   35.0853   37.4933 C   0  0  0  0  0  0  0  0  0  0  0  0
   23.1155   35.2778   36.4246 O   0  0  0  0  0  0  0  0  0  0  0  0
   20.2337   37.3257   32.8083 C   0  0  2  0  0  0  0  0  0  0  0  0
   18.9901   37.7956   32.2766 O   0  0  0  0  0  0  0  0  0  0  0  0
   22.5944   32.6278   34.0748 C   0  0  1  0  0  0  0  0  0  0  0  0
   22.5176   33.1724   35.4210 O   0  0  0  0  0  0  0  0  0  0  0  0
   20.9141   38.4899   33.4941 C   0  0  0  0  0  0  0  0  0  0  0  0
   21.6118   34.0704   39.7527 C   0  0  0  0  0  0  0  0  0  0  0  0
   22.7742   31.0738   39.6114 C   0  0  0  0  0  0  0  0  0  0  0  0
  1  2  1  1  0  0  0
  1  6  1  0  0  0  0
  1 23  1  0  0  0  0
  3  4  1  1  0  0  0
  3  8  1  0  0  0  0
  3 30  1  0  0  0  0
  5  9  1  0  0  0  0
  5 27  1  0  0  0  0
  5 31  1  1  0  0  0
  6  7  1  6  0  0  0
  6 11  1  0  0  0  0
  8 13  1  0  0  0  0
  9 10  1  6  0  0  0
  9 15  1  0  0  0  0
 11 12  1  6  0  0  0
 11 17  1  0  0  0  0
 13 14  1  6  0  0  0
 13 19  1  0  0  0  0
 15 16  1  1  0  0  0
 15 20  1  0  0  0  0
 16 34  1  0  0  0  0
 17 18  1  1  0  0  0
 17 22  1  0  0  0  0
 19  2  1  6  0  0  0
 19 24  1  0  0  0  0
 20 21  1  1  0  0  0
 20 26  1  0  0  0  0
 20 33  1  0  0  0  0
 22 23  1  6  0  0  0
 22 28  1  0  0  0  0
 24 25  1  1  0  0  0
 24 30  1  0  0  0  0
 26 27  1  0  0  0  0
 28 29  1  6  0  0  0
 28 32  1  0  0  0  0
 30 31  1  1  0  0  0
M  END
>  <CHROM.1>
-165.39266090,25.19626503,-138.12112249,52.31175498,-179.87826335,-113.48557311
22.16074794,34.51144436,33.70868619,-2.71923452,-1.36598788,0.82060229

>  <Name>
ligand

>  <RI>
0

>  <Rbt.Current_Directory>
/home/itssahil/PROJECTS/Mol_Feturizer/New_Systems/rnas/4p3s

>  <Rbt.Executable>
rbdock ($Id: //depot/dev/client3/rdock/2013.1/src/exe/rbdock.cxx#4 $)

>  <Rbt.Library>
libRbt.so (2013.1, Build901 2013/11/27)

>  <Rbt.Parameter_File>
/export/apps/rDock/src/rDock_2013.1_src/data/scripts/dock_solv.prm

>  <Rbt.Receptor>
prm/blind_docking_60.prm

>  <SCORE>
9.06049

>  <SCORE.INTER>
-2.2013

>  <SCORE.INTER.CONST>
1

>  <SCORE.INTER.POLAR>
0

>  <SCORE.INTER.ROT>
6

>  <SCORE.INTER.SOLV>
14.6397

>  <SCORE.INTER.VDW>
-13.9474

>  <SCORE.INTER.norm>
-0.0647442

>  <SCORE.INTRA>
3.68802

>  <SCORE.INTRA.DIHEDRAL>
-2.11498

>  <SCORE.INTRA.DIHEDRAL.0>
15.8194

>  <SCORE.INTRA.POLAR>
0

>  <SCORE.INTRA.POLAR.0>
0

>  <SCORE.INTRA.REPUL>
0

>  <SCORE.INTRA.REPUL.0>
0

>  <SCORE.INTRA.SOLV>
0.139112

>  <SCORE.INTRA.SOLV.lig_0>
-71.9159

>  <SCORE.INTRA.VDW>
4.67595

>  <SCORE.INTRA.VDW.0>
-3.53918

>  <SCORE.INTRA.norm>
0.108471

>  <SCORE.RESTR>
7.57377

>  <SCORE.RESTR.CAVITY>
7.57377

>  <SCORE.RESTR.norm>
0.222758

>  <SCORE.SYSTEM>
0

>  <SCORE.SYSTEM.CONST>
0

>  <SCORE.SYSTEM.DIHEDRAL>
0

>  <SCORE.SYSTEM.SOLV>
0

>  <SCORE.SYSTEM.norm>
0

>  <SCORE.heavy>
34

>  <SCORE.norm>
0.266485

>  <RMSD>
8.668

$$$$
ligand
 OpenBabel01301917533D
libRbt.so/2013.1/901 2013/11/27
 34 36  0  0  0  0  0  0  0  0999 V2000
   19.6933   23.0393   32.2518 C   0  0  2  0  0  0  0  0  0  0  0  0
   18.5692   22.3105   31.7482 O   0  0  0  0  0  0  0  0  0  0  0  0
   14.7232   23.5813   33.1608 C   0  0  2  0  0  0  0  0  0  0  0  0
   13.4138   23.5971   33.8270 N   0  0  0  0  0  0  0  0  0  0  0  0
   15.3880   25.9495   34.4587 C   0  0  2  0  0  0  0  0  0  0  0  0
   20.8473   22.9561   31.1831 C   0  0  2  0  0  0  0  0  0  0  0  0
   20.4104   23.5161   29.8941 N   0  0  0  0  0  0  0  0  0  0  0  0
   14.7736   22.3131   32.2344 C   0  0  0  0  0  0  0  0  0  0  0  0
   16.7184   26.6923   34.0421 C   0  0  2  0  0  0  0  0  0  0  0  0
   17.4336   25.9242   33.0897 O   0  0  0  0  0  0  0  0  0  0  0  0
   21.3034   21.4774   30.9974 C   0  0  1  0  0  0  0  0  0  0  0  0
   22.3582   21.3967   30.0211 O   0  0  0  0  0  0  0  0  0  0  0  0
   16.1649   22.3077   31.5086 C   0  0  2  0  0  0  0  0  0  0  0  0
   16.2858   21.1224   30.6126 N   0  0  0  0  0  0  0  0  0  0  0  0
   17.5891   26.9036   35.3381 C   0  0  1  0  0  0  0  0  0  0  0  0
   18.8688   27.5637   35.0105 N   0  0  0  0  0  0  0  0  0  0  0  0
   21.7553   20.9301   32.3716 C   0  0  2  0  0  0  0  0  0  0  0  0
   22.1902   19.5751   32.2209 O   0  0  0  0  0  0  0  0  0  0  0  0
   17.3303   22.2764   32.5432 C   0  0  2  0  0  0  0  0  0  0  0  0
   16.7798   27.7632   36.3600 C   0  0  1  0  0  0  0  0  0  0  0  0
   16.5195   29.0338   35.7724 O   0  0  0  0  0  0  0  0  0  0  0  0
   20.5417   21.0440   33.3916 C   0  0  2  0  0  0  0  0  0  0  0  0
   20.1004   22.4502   33.5253 O   0  0  0  0  0  0  0  0  0  0  0  0
   17.2102   23.5066   33.4833 C   0  0  2  0  0  0  0  0  0  0  0  0
   18.2675   23.4372   34.4378 O   0  0  0  0  0  0  0  0  0  0  0  0
   15.4333   27.0363   36.6767 C   0  0  0  0  0  0  0  0  0  0  0  0
   14.6577   26.7750   35.4405 O   0  0  0  0  0  0  0  0  0  0  0  0
   20.9010   20.5196   34.8116 C   0  0  2  0  0  0  0  0  0  0  0  0
   20.6999   19.1027   34.8561 O   0  0  0  0  0  0  0  0  0  0  0  0
   15.8693   23.5111   34.2581 C   0  0  1  0  0  0  0  0  0  0  0  0
   15.8371   24.7059   35.0864 O   0  0  0  0  0  0  0  0  0  0  0  0
   20.0387   21.1442   35.8863 C   0  0  0  0  0  0  0  0  0  0  0  0
   17.5528   27.9967   37.6588 C   0  0  0  0  0  0  0  0  0  0  0  0
   19.8940   26.5007   34.8700 C   0  0  0  0  0  0  0  0  0  0  0  0
  1  2  1  6  0  0  0
  1  6  1  0  0  0  0
  1 23  1  0  0  0  0
  3  4  1  1  0  0  0
  3  8  1  0  0  0  0
  3 30  1  0  0  0  0
  5  9  1  0  0  0  0
  5 27  1  0  0  0  0
  5 31  1  1  0  0  0
  6  7  1  6  0  0  0
  6 11  1  0  0  0  0
  8 13  1  0  0  0  0
  9 10  1  6  0  0  0
  9 15  1  0  0  0  0
 11 12  1  6  0  0  0
 11 17  1  0  0  0  0
 13 14  1  6  0  0  0
 13 19  1  0  0  0  0
 15 16  1  6  0  0  0
 15 20  1  0  0  0  0
 16 34  1  0  0  0  0
 17 18  1  6  0  0  0
 17 22  1  0  0  0  0
 19  2  1  6  0  0  0
 19 24  1  0  0  0  0
 20 21  1  6  0  0  0
 20 26  1  0  0  0  0
 20 33  1  0  0  0  0
 22 23  1  1  0  0  0
 22 28  1  0  0  0  0
 24 25  1  1  0  0  0
 24 30  1  0  0  0  0
 26 27  1  0  0  0  0
 28 29  1  6  0  0  0
 28 32  1  0  0  0  0
 30 31  1  1  0  0  0
M  END
>  <CHROM.1>
-177.73226544,143.76498921,-96.51540893,-85.34794492,-31.35838871,-96.72104186
18.15066692,23.76062353,33.63738962,-0.95689689,-0.14785571,0.61601514

>  <Name>
ligand

>  <RI>
0

>  <Rbt.Current_Directory>
/home/itssahil/PROJECTS/Mol_Feturizer/New_Systems/rnas/4p3s

>  <Rbt.Executable>
rbdock ($Id: //depot/dev/client3/rdock/2013.1/src/exe/rbdock.cxx#4 $)

>  <Rbt.Library>
libRbt.so (2013.1, Build901 2013/11/27)

>  <Rbt.Parameter_File>
/export/apps/rDock/src/rDock_2013.1_src/data/scripts/dock_solv.prm

>  <Rbt.Receptor>
prm/blind_docking_60.prm

>  <SCORE>
4.02326

>  <SCORE.INTER>
-10.8338

>  <SCORE.INTER.CONST>
1

>  <SCORE.INTER.POLAR>
0

>  <SCORE.INTER.ROT>
6

>  <SCORE.INTER.SOLV>
23.0557

>  <SCORE.INTER.VDW>
-22.5078

>  <SCORE.INTER.norm>
-0.31864

>  <SCORE.INTRA>
8.41917

>  <SCORE.INTRA.DIHEDRAL>
-0.034816

>  <SCORE.INTRA.DIHEDRAL.0>
15.8194

>  <SCORE.INTRA.POLAR>
0

>  <SCORE.INTRA.POLAR.0>
0

>  <SCORE.INTRA.REPUL>
0

>  <SCORE.INTRA.REPUL.0>
0

>  <SCORE.INTRA.SOLV>
0.0715141

>  <SCORE.INTRA.SOLV.lig_0>
-71.9159

>  <SCORE.INTRA.VDW>
8.40082

>  <SCORE.INTRA.VDW.0>
-3.53918

>  <SCORE.INTRA.norm>
0.247623

>  <SCORE.RESTR>
6.43786

>  <SCORE.RESTR.CAVITY>
6.43786

>  <SCORE.RESTR.norm>
0.189349

>  <SCORE.SYSTEM>
0

>  <SCORE.SYSTEM.CONST>
0

>  <SCORE.SYSTEM.DIHEDRAL>
0

>  <SCORE.SYSTEM.SOLV>
0

>  <SCORE.SYSTEM.norm>
0

>  <SCORE.heavy>
34

>  <SCORE.norm>
0.118331

>  <RMSD>
8.670

$$$$
ligand
 OpenBabel01301917533D
libRbt.so/2013.1/901 2013/11/27
 34 36  0  0  0  0  0  0  0  0999 V2000
   20.5899   35.6378   29.7067 C   0  0  2  0  0  0  0  0  0  0  0  0
   20.2310   35.0500   30.9612 O   0  0  0  0  0  0  0  0  0  0  0  0
   20.5468   31.2917   33.0052 C   0  0  2  0  0  0  0  0  0  0  0  0
   20.9575   29.9292   33.3705 N   0  0  0  0  0  0  0  0  0  0  0  0
   23.4684   32.9388   34.8956 C   0  0  2  0  0  0  0  0  0  0  0  0
   21.3592   36.9807   29.9993 C   0  0  2  0  0  0  0  0  0  0  0  0
   22.5619   36.7307   30.8097 N   0  0  0  0  0  0  0  0  0  0  0  0
   20.0814   31.2651   31.5045 C   0  0  0  0  0  0  0  0  0  0  0  0
   23.9166   32.2653   36.2525 C   0  0  2  0  0  0  0  0  0  0  0  0
   24.0999   30.8715   36.0731 O   0  0  0  0  0  0  0  0  0  0  0  0
   20.4221   37.9899   30.7290 C   0  0  1  0  0  0  0  0  0  0  0  0
   21.1214   39.2189   30.9986 O   0  0  0  0  0  0  0  0  0  0  0  0
   19.6246   32.7166   31.1211 C   0  0  2  0  0  0  0  0  0  0  0  0
   19.1732   32.7678   29.7013 N   0  0  0  0  0  0  0  0  0  0  0  0
   22.7970   32.5350   37.3277 C   0  0  1  0  0  0  0  0  0  0  0  0
   23.1394   31.8977   38.6151 N   0  0  0  0  0  0  0  0  0  0  0  0
   19.1756   38.2254   29.8442 C   0  0  2  0  0  0  0  0  0  0  0  0
   18.3063   39.1600   30.4914 O   0  0  0  0  0  0  0  0  0  0  0  0
   20.7892   33.7342   31.3151 C   0  0  2  0  0  0  0  0  0  0  0  0
   22.6292   34.0765   37.5116 C   0  0  1  0  0  0  0  0  0  0  0  0
   23.8600   34.6090   37.9902 O   0  0  0  0  0  0  0  0  0  0  0  0
   18.4536   36.8314   29.5962 C   0  0  2  0  0  0  0  0  0  0  0  0
   19.3717   35.8765   28.9362 O   0  0  0  0  0  0  0  0  0  0  0  0
   21.2681   33.6852   32.7915 C   0  0  2  0  0  0  0  0  0  0  0  0
   22.3524   34.6005   32.9341 O   0  0  0  0  0  0  0  0  0  0  0  0
   22.2738   34.7141   36.1301 C   0  0  0  0  0  0  0  0  0  0  0  0
   23.2966   34.3895   35.1070 O   0  0  0  0  0  0  0  0  0  0  0  0
   17.1835   36.9638   28.7076 C   0  0  2  0  0  0  0  0  0  0  0  0
   16.2339   37.8100   29.3652 O   0  0  0  0  0  0  0  0  0  0  0  0
   21.7791   32.2772   33.1851 C   0  0  1  0  0  0  0  0  0  0  0  0
   22.1783   32.3226   34.5827 O   0  0  0  0  0  0  0  0  0  0  0  0
   16.5191   35.6278   28.4579 C   0  0  0  0  0  0  0  0  0  0  0  0
   21.5414   34.4220   38.5295 C   0  0  0  0  0  0  0  0  0  0  0  0
   22.6778   30.4893   38.5504 C   0  0  0  0  0  0  0  0  0  0  0  0
  1  2  1  1  0  0  0
  1  6  1  0  0  0  0
  1 23  1  0  0  0  0
  3  4  1  6  0  0  0
  3  8  1  0  0  0  0
  3 30  1  0  0  0  0
  5  9  1  0  0  0  0
  5 27  1  0  0  0  0
  5 31  1  1  0  0  0
  6  7  1  1  0  0  0
  6 11  1  0  0  0  0
  8 13  1  0  0  0  0
  9 10  1  6  0  0  0
  9 15  1  0  0  0  0
 11 12  1  6  0  0  0
 11 17  1  0  0  0  0
 13 14  1  6  0  0  0
 13 19  1  0  0  0  0
 15 16  1  1  0  0  0
 15 20  1  0  0  0  0
 16 34  1  0  0  0  0
 17 18  1  1  0  0  0
 17 22  1  0  0  0  0
 19  2  1  1  0  0  0
 19 24  1  0  0  0  0
 20 21  1  1  0  0  0
 20 26  1  0  0  0  0
 20 33  1  0  0  0  0
 22 23  1  6  0  0  0
 22 28  1  0  0  0  0
 24 25  1  6  0  0  0
 24 30  1  0  0  0  0
 26 27  1  0  0  0  0
 28 29  1  1  0  0  0
 28 32  1  0  0  0  0
 30 31  1  1  0  0  0
M  END
>  <CHROM.1>
-117.35097231,-104.83981548,-84.98626596,-61.50331895,166.80525177,-154.21693148
20.99759881,34.44008887,32.92832101,2.60158508,-1.02844195,-0.05395746

>  <Name>
ligand

>  <RI>
0

>  <Rbt.Current_Directory>
/home/itssahil/PROJECTS/Mol_Feturizer/New_Systems/rnas/4p3s

>  <Rbt.Executable>
rbdock ($Id: //depot/dev/client3/rdock/2013.1/src/exe/rbdock.cxx#4 $)

>  <Rbt.Library>
libRbt.so (2013.1, Build901 2013/11/27)

>  <Rbt.Parameter_File>
/export/apps/rDock/src/rDock_2013.1_src/data/scripts/dock_solv.prm

>  <Rbt.Receptor>
prm/blind_docking_100.prm

>  <SCORE>
2.05251

>  <SCORE.INTER>
-3.01255

>  <SCORE.INTER.CONST>
1

>  <SCORE.INTER.POLAR>
0

>  <SCORE.INTER.ROT>
6

>  <SCORE.INTER.SOLV>
15.9192

>  <SCORE.INTER.VDW>
-14.9148

>  <SCORE.INTER.norm>
-0.0886043

>  <SCORE.INTRA>
3.6062

>  <SCORE.INTRA.DIHEDRAL>
1.62371

>  <SCORE.INTRA.DIHEDRAL.0>
15.8194

>  <SCORE.INTRA.POLAR>
0

>  <SCORE.INTRA.POLAR.0>
0

>  <SCORE.INTRA.REPUL>
0

>  <SCORE.INTRA.REPUL.0>
0

>  <SCORE.INTRA.SOLV>
1.41903

>  <SCORE.INTRA.SOLV.lig_0>
-71.9159

>  <SCORE.INTRA.VDW>
2.08483

>  <SCORE.INTRA.VDW.0>
-3.53918

>  <SCORE.INTRA.norm>
0.106065

>  <SCORE.RESTR>
1.45886

>  <SCORE.RESTR.CAVITY>
1.45886

>  <SCORE.RESTR.norm>
0.0429076

>  <SCORE.SYSTEM>
0

>  <SCORE.SYSTEM.CONST>
0

>  <SCORE.SYSTEM.DIHEDRAL>
0

>  <SCORE.SYSTEM.SOLV>
0

>  <SCORE.SYSTEM.norm>
0

>  <SCORE.heavy>
34

>  <SCORE.norm>
0.060368

>  <RMSD>
8.673

$$$$
ligand
 OpenBabel01301917533D
libRbt.so/2013.1/901 2013/11/27
 34 36  0  0  0  0  0  0  0  0999 V2000
   21.7453   22.5468   31.8948 C   0  0  2  0  0  0  0  0  0  0  0  0
   20.5984   23.3783   31.6911 O   0  0  0  0  0  0  0  0  0  0  0  0
   16.3394   23.3750   32.2036 C   0  0  2  0  0  0  0  0  0  0  0  0
   14.9654   22.9365   32.4836 N   0  0  0  0  0  0  0  0  0  0  0  0
   15.8233   25.3432   34.0176 C   0  0  2  0  0  0  0  0  0  0  0  0
   21.6654   21.3474   30.8771 C   0  0  2  0  0  0  0  0  0  0  0  0
   21.6289   21.8376   29.4899 N   0  0  0  0  0  0  0  0  0  0  0  0
   16.9417   22.4030   31.1258 C   0  0  0  0  0  0  0  0  0  0  0  0
   16.8443   26.5140   33.7309 C   0  0  2  0  0  0  0  0  0  0  0  0
   17.7648   26.1288   32.7244 O   0  0  0  0  0  0  0  0  0  0  0  0
   20.4071   20.4757   31.1703 C   0  0  1  0  0  0  0  0  0  0  0  0
   20.3300   19.3780   30.2421 O   0  0  0  0  0  0  0  0  0  0  0  0
   18.4023   22.8837   30.8132 C   0  0  2  0  0  0  0  0  0  0  0  0
   19.0408   21.9991   29.7973 N   0  0  0  0  0  0  0  0  0  0  0  0
   17.6056   26.8406   35.0710 C   0  0  1  0  0  0  0  0  0  0  0  0
   18.6054   27.9071   34.8618 N   0  0  0  0  0  0  0  0  0  0  0  0
   20.4869   19.9806   32.6333 C   0  0  2  0  0  0  0  0  0  0  0  0
   19.3451   19.1669   32.9199 O   0  0  0  0  0  0  0  0  0  0  0  0
   19.2762   22.8789   32.1038 C   0  0  2  0  0  0  0  0  0  0  0  0
   16.5668   27.2739   36.1534 C   0  0  1  0  0  0  0  0  0  0  0  0
   15.9115   28.4542   35.7009 O   0  0  0  0  0  0  0  0  0  0  0  0
   20.5614   21.2424   33.5969 C   0  0  2  0  0  0  0  0  0  0  0  0
   21.7420   22.0757   33.2778 O   0  0  0  0  0  0  0  0  0  0  0  0
   18.6164   23.7958   33.1694 C   0  0  2  0  0  0  0  0  0  0  0  0
   19.4172   23.7489   34.3485 O   0  0  0  0  0  0  0  0  0  0  0  0
   15.5252   26.1246   36.3421 C   0  0  0  0  0  0  0  0  0  0  0  0
   14.8702   25.7742   35.0591 O   0  0  0  0  0  0  0  0  0  0  0  0
   20.6493   20.8455   35.0986 C   0  0  2  0  0  0  0  0  0  0  0  0
   20.3460   19.4531   35.2371 O   0  0  0  0  0  0  0  0  0  0  0  0
   17.1924   23.3143   33.5419 C   0  0  1  0  0  0  0  0  0  0  0  0
   16.6490   24.2439   34.5193 O   0  0  0  0  0  0  0  0  0  0  0  0
   19.6702   21.6205   35.9526 C   0  0  0  0  0  0  0  0  0  0  0  0
   17.2284   27.5901   37.4955 C   0  0  0  0  0  0  0  0  0  0  0  0
   17.9883   28.9280   33.9798 C   0  0  0  0  0  0  0  0  0  0  0  0
  1  2  1  1  0  0  0
  1  6  1  0  0  0  0
  1 23  1  0  0  0  0
  3  4  1  1  0  0  0
  3  8  1  0  0  0  0
  3 30  1  0  0  0  0
  5  9  1  0  0  0  0
  5 27  1  0  0  0  0
  5 31  1  1  0  0  0
  6  7  1  6  0  0  0
  6 11  1  0  0  0  0
  8 13  1  0  0  0  0
  9 10  1  6  0  0  0
  9 15  1  0  0  0  0
 11 12  1  6  0  0  0
 11 17  1  0  0  0  0
 13 14  1  6  0  0  0
 13 19  1  0  0  0  0
 15 16  1  6  0  0  0
 15 20  1  0  0  0  0
 16 34  1  0  0  0  0
 17 18  1  1  0  0  0
 17 22  1  0  0  0  0
 19  2  1  6  0  0  0
 19 24  1  0  0  0  0
 20 21  1  6  0  0  0
 20 26  1  0  0  0  0
 20 33  1  0  0  0  0
 22 23  1  6  0  0  0
 22 28  1  0  0  0  0
 24 25  1  1  0  0  0
 24 30  1  0  0  0  0
 26 27  1  0  0  0  0
 28 29  1  6  0  0  0
 28 32  1  0  0  0  0
 30 31  1  1  0  0  0
M  END
>  <CHROM.1>
70.91598167,-121.33497440,41.19846961,-12.59241726,-21.22780915,-89.54111979
18.55182672,23.58440859,33.36087413,0.58161927,0.95082911,-1.75740792

>  <Name>
ligand

>  <RI>
0

>  <Rbt.Current_Directory>
/home/itssahil/PROJECTS/Mol_Feturizer/New_Systems/rnas/4p3s

>  <Rbt.Executable>
rbdock ($Id: //depot/dev/client3/rdock/2013.1/src/exe/rbdock.cxx#4 $)

>  <Rbt.Library>
libRbt.so (2013.1, Build901 2013/11/27)

>  <Rbt.Parameter_File>
/export/apps/rDock/src/rDock_2013.1_src/data/scripts/dock_solv.prm

>  <Rbt.Receptor>
prm/blind_docking_60.prm

>  <SCORE>
20.9734

>  <SCORE.INTER>
-10.9939

>  <SCORE.INTER.CONST>
1

>  <SCORE.INTER.POLAR>
0

>  <SCORE.INTER.ROT>
6

>  <SCORE.INTER.SOLV>
18.5978

>  <SCORE.INTER.VDW>
-21.1285

>  <SCORE.INTER.norm>
-0.32335

>  <SCORE.INTRA>
27.0239

>  <SCORE.INTRA.DIHEDRAL>
5.73173

>  <SCORE.INTRA.DIHEDRAL.0>
15.8194

>  <SCORE.INTRA.POLAR>
0

>  <SCORE.INTRA.POLAR.0>
0

>  <SCORE.INTRA.REPUL>
0

>  <SCORE.INTRA.REPUL.0>
0

>  <SCORE.INTRA.SOLV>
8.61434

>  <SCORE.INTRA.SOLV.lig_0>
-71.9159

>  <SCORE.INTRA.VDW>
19.8509

>  <SCORE.INTRA.VDW.0>
-3.53918

>  <SCORE.INTRA.norm>
0.79482

>  <SCORE.RESTR>
4.94341

>  <SCORE.RESTR.CAVITY>
4.94341

>  <SCORE.RESTR.norm>
0.145394

>  <SCORE.SYSTEM>
0

>  <SCORE.SYSTEM.CONST>
0

>  <SCORE.SYSTEM.DIHEDRAL>
0

>  <SCORE.SYSTEM.SOLV>
0

>  <SCORE.SYSTEM.norm>
0

>  <SCORE.heavy>
34

>  <SCORE.norm>
0.616865

>  <RMSD>
8.676

$$$$
ligand
 OpenBabel01301917533D
libRbt.so/2013.1/901 2013/11/27
 34 36  0  0  0  0  0  0  0  0999 V2000
   18.7591   36.3273   31.1791 C   0  0  2  0  0  0  0  0  0  0  0  0
   18.5283   34.9751   30.7710 O   0  0  0  0  0  0  0  0  0  0  0  0
   20.3439   31.4469   32.4012 C   0  0  2  0  0  0  0  0  0  0  0  0
   21.2778   30.3382   32.6403 N   0  0  0  0  0  0  0  0  0  0  0  0
   22.4755   31.9951   34.6483 C   0  0  2  0  0  0  0  0  0  0  0  0
   17.4078   37.1213   31.0236 C   0  0  2  0  0  0  0  0  0  0  0  0
   16.3452   36.5145   31.8413 N   0  0  0  0  0  0  0  0  0  0  0  0
   19.9570   31.4268   30.8784 C   0  0  0  0  0  0  0  0  0  0  0  0
   22.2961   31.9106   36.2155 C   0  0  2  0  0  0  0  0  0  0  0  0
   21.0667   31.2832   36.5371 O   0  0  0  0  0  0  0  0  0  0  0  0
   16.9754   37.1599   29.5267 C   0  0  1  0  0  0  0  0  0  0  0  0
   15.7403   37.8848   29.3799 O   0  0  0  0  0  0  0  0  0  0  0  0
   18.9446   32.5993   30.6281 C   0  0  2  0  0  0  0  0  0  0  0  0
   18.5366   32.6446   29.1949 N   0  0  0  0  0  0  0  0  0  0  0  0
   22.3288   33.3761   36.7931 C   0  0  1  0  0  0  0  0  0  0  0  0
   22.1291   33.3695   38.2563 N   0  0  0  0  0  0  0  0  0  0  0  0
   18.1163   37.8054   28.7060 C   0  0  2  0  0  0  0  0  0  0  0  0
   17.7340   37.8617   27.3280 O   0  0  0  0  0  0  0  0  0  0  0  0
   19.5771   33.9705   31.0141 C   0  0  2  0  0  0  0  0  0  0  0  0
   23.6989   34.0337   36.4342 C   0  0  1  0  0  0  0  0  0  0  0  0
   24.7361   33.2769   37.0497 O   0  0  0  0  0  0  0  0  0  0  0  0
   19.4404   36.9502   28.9102 C   0  0  2  0  0  0  0  0  0  0  0  0
   19.8126   36.8956   30.3415 O   0  0  0  0  0  0  0  0  0  0  0  0
   20.0081   33.9311   32.5054 C   0  0  2  0  0  0  0  0  0  0  0  0
   20.6109   35.1837   32.8236 O   0  0  0  0  0  0  0  0  0  0  0  0
   23.8757   34.0170   34.8818 C   0  0  0  0  0  0  0  0  0  0  0  0
   23.7670   32.6407   34.3414 O   0  0  0  0  0  0  0  0  0  0  0  0
   20.6529   37.5256   28.1235 C   0  0  2  0  0  0  0  0  0  0  0  0
   20.3270   37.5833   26.7304 O   0  0  0  0  0  0  0  0  0  0  0  0
   21.0516   32.8188   32.7745 C   0  0  1  0  0  0  0  0  0  0  0  0
   21.3722   32.8420   34.1927 O   0  0  0  0  0  0  0  0  0  0  0  0
   21.8907   36.6691   28.2749 C   0  0  0  0  0  0  0  0  0  0  0  0
   23.8012   35.4715   36.9452 C   0  0  0  0  0  0  0  0  0  0  0  0
   21.2299   34.5021   38.5872 C   0  0  0  0  0  0  0  0  0  0  0  0
  1  2  1  6  0  0  0
  1  6  1  0  0  0  0
  1 23  1  0  0  0  0
  3  4  1  6  0  0  0
  3  8  1  0  0  0  0
  3 30  1  0  0  0  0
  5  9  1  0  0  0  0
  5 27  1  0  0  0  0
  5 31  1  6  0  0  0
  6  7  1  1  0  0  0
  6 11  1  0  0  0  0
  8 13  1  0  0  0  0
  9 10  1  6  0  0  0
  9 15  1  0  0  0  0
 11 12  1  1  0  0  0
 11 17  1  0  0  0  0
 13 14  1  6  0  0  0
 13 19  1  0  0  0  0
 15 16  1  1  0  0  0
 15 20  1  0  0  0  0
 16 34  1  0  0  0  0
 17 18  1  6  0  0  0
 17 22  1  0  0  0  0
 19  2  1  1  0  0  0
 19 24  1  0  0  0  0
 20 21  1  1  0  0  0
 20 26  1  0  0  0  0
 20 33  1  0  0  0  0
 22 23  1  1  0  0  0
 22 28  1  0  0  0  0
 24 25  1  6  0  0  0
 24 30  1  0  0  0  0
 26 27  1  0  0  0  0
 28 29  1  6  0  0  0
 28 32  1  0  0  0  0
 30 31  1  1  0  0  0
M  END
>  <CHROM.1>
-170.70927313,172.94079471,-138.97778746,-57.87832064,72.71251034,-163.84608972
20.44737155,34.56605249,32.40564938,-2.85555051,1.07686311,-2.97671277

>  <Name>
ligand

>  <RI>
0

>  <Rbt.Current_Directory>
/home/itssahil/PROJECTS/Mol_Feturizer/New_Systems/rnas/4p3s

>  <Rbt.Executable>
rbdock ($Id: //depot/dev/client3/rdock/2013.1/src/exe/rbdock.cxx#4 $)

>  <Rbt.Library>
libRbt.so (2013.1, Build901 2013/11/27)

>  <Rbt.Parameter_File>
/export/apps/rDock/src/rDock_2013.1_src/data/scripts/dock_solv.prm

>  <Rbt.Receptor>
prm/blind_docking_100.prm

>  <SCORE>
-1.98106

>  <SCORE.INTER>
0.74463

>  <SCORE.INTER.CONST>
1

>  <SCORE.INTER.POLAR>
0

>  <SCORE.INTER.ROT>
6

>  <SCORE.INTER.SOLV>
15.7928

>  <SCORE.INTER.VDW>
-12.3679

>  <SCORE.INTER.norm>
0.0219009

>  <SCORE.INTRA>
-4.78367

>  <SCORE.INTRA.DIHEDRAL>
-12.1353

>  <SCORE.INTRA.DIHEDRAL.0>
15.8194

>  <SCORE.INTRA.POLAR>
0

>  <SCORE.INTRA.POLAR.0>
0

>  <SCORE.INTRA.REPUL>
0

>  <SCORE.INTRA.REPUL.0>
0

>  <SCORE.INTRA.SOLV>
-0.853146

>  <SCORE.INTRA.SOLV.lig_0>
-71.9159

>  <SCORE.INTRA.VDW>
1.71055

>  <SCORE.INTRA.VDW.0>
-3.53918

>  <SCORE.INTRA.norm>
-0.140696

>  <SCORE.RESTR>
2.05799

>  <SCORE.RESTR.CAVITY>
2.05799

>  <SCORE.RESTR.norm>
0.0605291

>  <SCORE.SYSTEM>
0

>  <SCORE.SYSTEM.CONST>
0

>  <SCORE.SYSTEM.DIHEDRAL>
0

>  <SCORE.SYSTEM.SOLV>
0

>  <SCORE.SYSTEM.norm>
0

>  <SCORE.heavy>
34

>  <SCORE.norm>
-0.0582663

>  <RMSD>
8.677

$$$$
ligand
 OpenBabel01301917533D
libRbt.so/2013.1/901 2013/11/27
 34 36  0  0  0  0  0  0  0  0999 V2000
   17.8100   29.1343   36.9937 C   0  0  2  0  0  0  0  0  0  0  0  0
   17.4180   29.3526   35.6347 O   0  0  0  0  0  0  0  0  0  0  0  0
   15.8382   25.4340   34.8926 C   0  0  2  0  0  0  0  0  0  0  0  0
   15.0546   24.3262   34.3292 N   0  0  0  0  0  0  0  0  0  0  0  0
   17.3367   23.9965   32.3899 C   0  0  2  0  0  0  0  0  0  0  0  0
   18.6765   30.3659   37.4554 C   0  0  2  0  0  0  0  0  0  0  0  0
   17.9129   31.6185   37.3381 N   0  0  0  0  0  0  0  0  0  0  0  0
   14.8299   26.5482   35.3521 C   0  0  0  0  0  0  0  0  0  0  0  0
   17.6936   22.5922   33.0192 C   0  0  2  0  0  0  0  0  0  0  0  0
   16.9622   22.3888   34.2159 O   0  0  0  0  0  0  0  0  0  0  0  0
   19.9819   30.4533   36.6084 C   0  0  1  0  0  0  0  0  0  0  0  0
   20.7770   31.5780   37.0270 O   0  0  0  0  0  0  0  0  0  0  0  0
   15.6665   27.7225   35.9712 C   0  0  2  0  0  0  0  0  0  0  0  0
   14.7704   28.8238   36.4257 N   0  0  0  0  0  0  0  0  0  0  0  0
   19.2411   22.5653   33.3137 C   0  0  1  0  0  0  0  0  0  0  0  0
   19.6356   21.2871   33.9394 N   0  0  0  0  0  0  0  0  0  0  0  0
   20.7529   29.1213   36.7616 C   0  0  2  0  0  0  0  0  0  0  0  0
   21.9629   29.1853   36.0002 O   0  0  0  0  0  0  0  0  0  0  0  0
   16.6762   28.2935   34.9302 C   0  0  2  0  0  0  0  0  0  0  0  0
   20.0174   22.7781   31.9756 C   0  0  1  0  0  0  0  0  0  0  0  0
   19.7010   21.7038   31.0964 O   0  0  0  0  0  0  0  0  0  0  0  0
   19.8189   27.9309   36.2752 C   0  0  2  0  0  0  0  0  0  0  0  0
   18.5696   27.8885   37.0673 O   0  0  0  0  0  0  0  0  0  0  0  0
   17.6121   27.1517   34.4486 C   0  0  2  0  0  0  0  0  0  0  0  0
   18.5035   27.6927   33.4758 O   0  0  0  0  0  0  0  0  0  0  0  0
   19.5699   24.1347   31.3426 C   0  0  0  0  0  0  0  0  0  0  0  0
   18.1017   24.1774   31.1406 O   0  0  0  0  0  0  0  0  0  0  0  0
   20.5076   26.5411   36.3955 C   0  0  2  0  0  0  0  0  0  0  0  0
   19.5155   25.5131   36.2995 O   0  0  0  0  0  0  0  0  0  0  0  0
   16.8203   26.0006   33.7805 C   0  0  1  0  0  0  0  0  0  0  0  0
   17.7721   24.9734   33.3890 O   0  0  0  0  0  0  0  0  0  0  0  0
   21.2248   26.3713   37.7167 C   0  0  0  0  0  0  0  0  0  0  0  0
   21.5328   22.7848   32.1814 C   0  0  0  0  0  0  0  0  0  0  0  0
   19.7024   21.5113   35.4044 C   0  0  0  0  0  0  0  0  0  0  0  0
  1  2  1  6  0  0  0
  1  6  1  0  0  0  0
  1 23  1  0  0  0  0
  3  4  1  6  0  0  0
  3  8  1  0  0  0  0
  3 30  1  0  0  0  0
  5  9  1  0  0  0  0
  5 27  1  0  0  0  0
  5 31  1  1  0  0  0
  6  7  1  6  0  0  0
  6 11  1  0  0  0  0
  8 13  1  0  0  0  0
  9 10  1  1  0  0  0
  9 15  1  0  0  0  0
 11 12  1  1  0  0  0
 11 17  1  0  0  0  0
 13 14  1  6  0  0  0
 13 19  1  0  0  0  0
 15 16  1  6  0  0  0
 15 20  1  0  0  0  0
 16 34  1  0  0  0  0
 17 18  1  6  0  0  0
 17 22  1  0  0  0  0
 19  2  1  1  0  0  0
 19 24  1  0  0  0  0
 20 21  1  6  0  0  0
 20 26  1  0  0  0  0
 20 33  1  0  0  0  0
 22 23  1  1  0  0  0
 22 28  1  0  0  0  0
 24 25  1  6  0  0  0
 24 30  1  0  0  0  0
 26 27  1  0  0  0  0
 28 29  1  1  0  0  0
 28 32  1  0  0  0  0
 30 31  1  1  0  0  0
M  END
>  <CHROM.1>
175.58844639,40.29419775,-97.70871298,164.22751494,83.02495028,-129.97639628
18.50548262,26.21888244,34.83038489,1.56885290,-0.08904906,0.51731332

>  <Name>
ligand

>  <RI>
0

>  <Rbt.Current_Directory>
/home/itssahil/PROJECTS/Mol_Feturizer/New_Systems/rnas/4p3s

>  <Rbt.Executable>
rbdock ($Id: //depot/dev/client3/rdock/2013.1/src/exe/rbdock.cxx#4 $)

>  <Rbt.Library>
libRbt.so (2013.1, Build901 2013/11/27)

>  <Rbt.Parameter_File>
/export/apps/rDock/src/rDock_2013.1_src/data/scripts/dock_solv.prm

>  <Rbt.Receptor>
prm/pocket_docking_5.prm

>  <SCORE>
-15.6034

>  <SCORE.INTER>
-16.8863

>  <SCORE.INTER.CONST>
1

>  <SCORE.INTER.POLAR>
0

>  <SCORE.INTER.ROT>
6

>  <SCORE.INTER.SOLV>
16.8894

>  <SCORE.INTER.VDW>
-24.4873

>  <SCORE.INTER.norm>
-0.496657

>  <SCORE.INTRA>
1.28294

>  <SCORE.INTRA.DIHEDRAL>
-3.23665

>  <SCORE.INTRA.DIHEDRAL.0>
15.8194

>  <SCORE.INTRA.POLAR>
0

>  <SCORE.INTRA.POLAR.0>
0

>  <SCORE.INTRA.REPUL>
0.0361557

>  <SCORE.INTRA.REPUL.0>
0

>  <SCORE.INTRA.SOLV>
2.27579

>  <SCORE.INTRA.SOLV.lig_0>
-71.9159

>  <SCORE.INTRA.VDW>
1.58259

>  <SCORE.INTRA.VDW.0>
-3.53918

>  <SCORE.INTRA.norm>
0.0377334

>  <SCORE.RESTR>
0

>  <SCORE.RESTR.CAVITY>
0

>  <SCORE.RESTR.norm>
0

>  <SCORE.SYSTEM>
0

>  <SCORE.SYSTEM.CONST>
0

>  <SCORE.SYSTEM.DIHEDRAL>
0

>  <SCORE.SYSTEM.SOLV>
0

>  <SCORE.SYSTEM.norm>
0

>  <SCORE.heavy>
34

>  <SCORE.norm>
-0.458923

>  <RMSD>
8.693

$$$$
ligand
 OpenBabel01301917533D
libRbt.so/2013.1/901 2013/11/27
 34 36  0  0  0  0  0  0  0  0999 V2000
   20.7679   35.5220   30.4121 C   0  0  2  0  0  0  0  0  0  0  0  0
   20.4615   35.1870   31.7694 O   0  0  0  0  0  0  0  0  0  0  0  0
   22.0192   32.2735   34.5056 C   0  0  2  0  0  0  0  0  0  0  0  0
   22.9474   31.4294   35.2701 N   0  0  0  0  0  0  0  0  0  0  0  0
   22.4799   35.0933   37.0408 C   0  0  2  0  0  0  0  0  0  0  0  0
   21.6565   36.8224   30.4192 C   0  0  2  0  0  0  0  0  0  0  0  0
   22.8948   36.6078   31.1851 N   0  0  0  0  0  0  0  0  0  0  0  0
   22.3462   32.0847   32.9803 C   0  0  0  0  0  0  0  0  0  0  0  0
   23.8080   34.5137   37.6697 C   0  0  2  0  0  0  0  0  0  0  0  0
   24.6900   34.0836   36.6472 O   0  0  0  0  0  0  0  0  0  0  0  0
   20.8564   38.0179   31.0188 C   0  0  1  0  0  0  0  0  0  0  0  0
   21.6652   39.2088   31.0273 O   0  0  0  0  0  0  0  0  0  0  0  0
   21.3417   32.9716   32.1639 C   0  0  2  0  0  0  0  0  0  0  0  0
   21.5986   32.8460   30.7008 N   0  0  0  0  0  0  0  0  0  0  0  0
   23.4223   33.3041   38.6027 C   0  0  1  0  0  0  0  0  0  0  0  0
   24.6280   32.6918   39.1960 N   0  0  0  0  0  0  0  0  0  0  0  0
   19.5680   38.2096   30.1850 C   0  0  2  0  0  0  0  0  0  0  0  0
   18.8234   39.3122   30.7124 O   0  0  0  0  0  0  0  0  0  0  0  0
   21.4693   34.4711   32.5695 C   0  0  2  0  0  0  0  0  0  0  0  0
   22.4626   33.8130   39.7245 C   0  0  1  0  0  0  0  0  0  0  0  0
   23.1540   34.7862   40.5006 O   0  0  0  0  0  0  0  0  0  0  0  0
   18.7259   36.8624   30.2278 C   0  0  2  0  0  0  0  0  0  0  0  0
   19.5164   35.7336   29.6884 O   0  0  0  0  0  0  0  0  0  0  0  0
   21.2062   34.6110   34.0936 C   0  0  2  0  0  0  0  0  0  0  0  0
   21.3598   35.9849   34.4435 O   0  0  0  0  0  0  0  0  0  0  0  0
   21.2046   34.4576   39.0587 C   0  0  0  0  0  0  0  0  0  0  0  0
   21.5856   35.5443   38.1250 O   0  0  0  0  0  0  0  0  0  0  0  0
   17.4058   36.9543   29.4097 C   0  0  2  0  0  0  0  0  0  0  0  0
   17.5397   37.9715   28.4110 O   0  0  0  0  0  0  0  0  0  0  0  0
   22.2184   33.7907   34.9308 C   0  0  1  0  0  0  0  0  0  0  0  0
   21.8782   33.9616   36.3342 O   0  0  0  0  0  0  0  0  0  0  0  0
   16.2192   37.3105   30.2779 C   0  0  0  0  0  0  0  0  0  0  0  0
   22.0246   32.6887   40.6642 C   0  0  0  0  0  0  0  0  0  0  0  0
   24.4508   31.2199   39.1433 C   0  0  0  0  0  0  0  0  0  0  0  0
  1  2  1  1  0  0  0
  1  6  1  0  0  0  0
  1 23  1  0  0  0  0
  3  4  1  1  0  0  0
  3  8  1  0  0  0  0
  3 30  1  0  0  0  0
  5  9  1  0  0  0  0
  5 27  1  0  0  0  0
  5 31  1  1  0  0  0
  6  7  1  1  0  0  0
  6 11  1  0  0  0  0
  8 13  1  0  0  0  0
  9 10  1  6  0  0  0
  9 15  1  0  0  0  0
 11 12  1  6  0  0  0
 11 17  1  0  0  0  0
 13 14  1  6  0  0  0
 13 19  1  0  0  0  0
 15 16  1  1  0  0  0
 15 20  1  0  0  0  0
 16 34  1  0  0  0  0
 17 18  1  1  0  0  0
 17 22  1  0  0  0  0
 19  2  1  6  0  0  0
 19 24  1  0  0  0  0
 20 21  1  1  0  0  0
 20 26  1  0  0  0  0
 20 33  1  0  0  0  0
 22 23  1  6  0  0  0
 22 28  1  0  0  0  0
 24 25  1  1  0  0  0
 24 30  1  0  0  0  0
 26 27  1  0  0  0  0
 28 29  1  6  0  0  0
 28 32  1  0  0  0  0
 30 31  1  1  0  0  0
M  END
>  <CHROM.1>
-80.55245513,-80.82103018,-138.06740437,23.75076119,156.01703432,-91.82564596
21.40723276,35.04813663,34.10021238,-2.45340086,-1.05471003,1.17821550

>  <Name>
ligand

>  <RI>
0

>  <Rbt.Current_Directory>
/home/itssahil/PROJECTS/Mol_Feturizer/New_Systems/rnas/4p3s

>  <Rbt.Executable>
rbdock ($Id: //depot/dev/client3/rdock/2013.1/src/exe/rbdock.cxx#4 $)

>  <Rbt.Library>
libRbt.so (2013.1, Build901 2013/11/27)

>  <Rbt.Parameter_File>
/export/apps/rDock/src/rDock_2013.1_src/data/scripts/dock_solv.prm

>  <Rbt.Receptor>
prm/blind_docking_60.prm

>  <SCORE>
10.4752

>  <SCORE.INTER>
3.24624

>  <SCORE.INTER.CONST>
1

>  <SCORE.INTER.POLAR>
0

>  <SCORE.INTER.ROT>
6

>  <SCORE.INTER.SOLV>
19.1691

>  <SCORE.INTER.VDW>
-11.8255

>  <SCORE.INTER.norm>
0.0954775

>  <SCORE.INTRA>
2.17096

>  <SCORE.INTRA.DIHEDRAL>
-1.05892

>  <SCORE.INTRA.DIHEDRAL.0>
15.8194

>  <SCORE.INTRA.POLAR>
0

>  <SCORE.INTRA.POLAR.0>
0

>  <SCORE.INTRA.REPUL>
0

>  <SCORE.INTRA.REPUL.0>
0

>  <SCORE.INTRA.SOLV>
3.38338

>  <SCORE.INTRA.SOLV.lig_0>
-71.9159

>  <SCORE.INTRA.VDW>
1.00873

>  <SCORE.INTRA.VDW.0>
-3.53918

>  <SCORE.INTRA.norm>
0.0638518

>  <SCORE.RESTR>
5.05796

>  <SCORE.RESTR.CAVITY>
5.05796

>  <SCORE.RESTR.norm>
0.148763

>  <SCORE.SYSTEM>
0

>  <SCORE.SYSTEM.CONST>
0

>  <SCORE.SYSTEM.DIHEDRAL>
0

>  <SCORE.SYSTEM.SOLV>
0

>  <SCORE.SYSTEM.norm>
0

>  <SCORE.heavy>
34

>  <SCORE.norm>
0.308093

>  <RMSD>
8.702

$$$$
ligand
 OpenBabel01301917533D
libRbt.so/2013.1/901 2013/11/27
 34 36  0  0  0  0  0  0  0  0999 V2000
   19.7433   22.9891   32.2608 C   0  0  2  0  0  0  0  0  0  0  0  0
   18.6317   22.2348   31.7673 O   0  0  0  0  0  0  0  0  0  0  0  0
   14.7658   23.4893   33.1396 C   0  0  2  0  0  0  0  0  0  0  0  0
   13.4529   23.5027   33.7990 N   0  0  0  0  0  0  0  0  0  0  0  0
   15.3893   25.8830   34.4039 C   0  0  2  0  0  0  0  0  0  0  0  0
   20.8905   22.9291   31.1832 C   0  0  2  0  0  0  0  0  0  0  0  0
   20.4314   23.4769   29.8967 N   0  0  0  0  0  0  0  0  0  0  0  0
   14.8338   22.2064   32.2347 C   0  0  0  0  0  0  0  0  0  0  0  0
   16.7073   26.6325   33.9604 C   0  0  2  0  0  0  0  0  0  0  0  0
   17.4223   25.8538   33.0164 O   0  0  0  0  0  0  0  0  0  0  0  0
   21.3775   21.4604   30.9966 C   0  0  1  0  0  0  0  0  0  0  0  0
   22.4262   21.4010   30.0123 O   0  0  0  0  0  0  0  0  0  0  0  0
   16.2287   22.2033   31.5160 C   0  0  2  0  0  0  0  0  0  0  0  0
   16.3663   21.0045   30.6405 N   0  0  0  0  0  0  0  0  0  0  0  0
   17.5874   26.8789   35.2437 C   0  0  1  0  0  0  0  0  0  0  0  0
   18.8565   27.5468   34.8911 N   0  0  0  0  0  0  0  0  0  0  0  0
   21.8521   20.9260   32.3682 C   0  0  2  0  0  0  0  0  0  0  0  0
   22.3155   19.5805   32.2166 O   0  0  0  0  0  0  0  0  0  0  0  0
   17.3891   22.2012   32.5566 C   0  0  2  0  0  0  0  0  0  0  0  0
   16.7778   27.7493   36.2562 C   0  0  1  0  0  0  0  0  0  0  0  0
   16.4977   29.0051   35.6463 O   0  0  0  0  0  0  0  0  0  0  0  0
   20.6443   21.0152   33.3975 C   0  0  2  0  0  0  0  0  0  0  0  0
   20.1732   22.4116   33.5321 O   0  0  0  0  0  0  0  0  0  0  0  0
   17.2517   23.4455   33.4755 C   0  0  2  0  0  0  0  0  0  0  0  0
   18.3048   23.4029   34.4362 O   0  0  0  0  0  0  0  0  0  0  0  0
   15.4427   27.0137   36.5997 C   0  0  0  0  0  0  0  0  0  0  0  0
   14.6588   26.7195   35.3762 O   0  0  0  0  0  0  0  0  0  0  0  0
   21.0260   20.5016   34.8156 C   0  0  2  0  0  0  0  0  0  0  0  0
   20.9352   19.0729   34.8402 O   0  0  0  0  0  0  0  0  0  0  0  0
   15.9069   23.4492   34.2435 C   0  0  1  0  0  0  0  0  0  0  0  0
   15.8583   24.6572   35.0516 O   0  0  0  0  0  0  0  0  0  0  0  0
   20.1049   21.0432   35.8865 C   0  0  0  0  0  0  0  0  0  0  0  0
   17.5601   28.0170   37.5428 C   0  0  0  0  0  0  0  0  0  0  0  0
   19.8798   26.4884   34.7082 C   0  0  0  0  0  0  0  0  0  0  0  0
  1  2  1  6  0  0  0
  1  6  1  0  0  0  0
  1 23  1  0  0  0  0
  3  4  1  1  0  0  0
  3  8  1  0  0  0  0
  3 30  1  0  0  0  0
  5  9  1  0  0  0  0
  5 27  1  0  0  0  0
  5 31  1  1  0  0  0
  6  7  1  6  0  0  0
  6 11  1  0  0  0  0
  8 13  1  0  0  0  0
  9 10  1  6  0  0  0
  9 15  1  0  0  0  0
 11 12  1  6  0  0  0
 11 17  1  0  0  0  0
 13 14  1  1  0  0  0
 13 19  1  0  0  0  0
 15 16  1  6  0  0  0
 15 20  1  0  0  0  0
 16 34  1  0  0  0  0
 17 18  1  6  0  0  0
 17 22  1  0  0  0  0
 19  2  1  6  0  0  0
 19 24  1  0  0  0  0
 20 21  1  6  0  0  0
 20 26  1  0  0  0  0
 20 33  1  0  0  0  0
 22 23  1  1  0  0  0
 22 28  1  0  0  0  0
 24 25  1  1  0  0  0
 24 30  1  0  0  0  0
 26 27  1  0  0  0  0
 28 29  1  6  0  0  0
 28 32  1  0  0  0  0
 30 31  1  1  0  0  0
M  END
>  <CHROM.1>
-176.30024225,143.44205794,-94.28264744,-81.84570795,-30.86765778,-96.22683256
18.19724920,23.71494878,33.60409889,-0.94218415,-0.13454994,0.59408338

>  <Name>
ligand

>  <RI>
0

>  <Rbt.Current_Directory>
/home/itssahil/PROJECTS/Mol_Feturizer/New_Systems/rnas/4p3s

>  <Rbt.Executable>
rbdock ($Id: //depot/dev/client3/rdock/2013.1/src/exe/rbdock.cxx#4 $)

>  <Rbt.Library>
libRbt.so (2013.1, Build901 2013/11/27)

>  <Rbt.Parameter_File>
/export/apps/rDock/src/rDock_2013.1_src/data/scripts/dock_solv.prm

>  <Rbt.Receptor>
prm/blind_docking_60.prm

>  <SCORE>
3.22094

>  <SCORE.INTER>
-11.1298

>  <SCORE.INTER.CONST>
1

>  <SCORE.INTER.POLAR>
0

>  <SCORE.INTER.ROT>
6

>  <SCORE.INTER.SOLV>
22.5207

>  <SCORE.INTER.VDW>
-22.5268

>  <SCORE.INTER.norm>
-0.327348

>  <SCORE.INTRA>
7.67386

>  <SCORE.INTRA.DIHEDRAL>
-0.461676

>  <SCORE.INTRA.DIHEDRAL.0>
15.8194

>  <SCORE.INTRA.POLAR>
0

>  <SCORE.INTRA.POLAR.0>
0

>  <SCORE.INTRA.REPUL>
0

>  <SCORE.INTRA.REPUL.0>
0

>  <SCORE.INTRA.SOLV>
0.0985601

>  <SCORE.INTRA.SOLV.lig_0>
-71.9159

>  <SCORE.INTRA.VDW>
7.85542

>  <SCORE.INTRA.VDW.0>
-3.53918

>  <SCORE.INTRA.norm>
0.225702

>  <SCORE.RESTR>
6.67692

>  <SCORE.RESTR.CAVITY>
6.67692

>  <SCORE.RESTR.norm>
0.19638

>  <SCORE.SYSTEM>
0

>  <SCORE.SYSTEM.CONST>
0

>  <SCORE.SYSTEM.DIHEDRAL>
0

>  <SCORE.SYSTEM.SOLV>
0

>  <SCORE.SYSTEM.norm>
0

>  <SCORE.heavy>
34

>  <SCORE.norm>
0.0947336

>  <RMSD>
8.710

$$$$
ligand
 OpenBabel01301917533D
libRbt.so/2013.1/901 2013/11/27
 34 36  0  0  0  0  0  0  0  0999 V2000
   18.8941   35.9442   38.6358 C   0  0  2  0  0  0  0  0  0  0  0  0
   20.3047   35.7024   38.6420 O   0  0  0  0  0  0  0  0  0  0  0  0
   22.9866   34.1558   35.6726 C   0  0  2  0  0  0  0  0  0  0  0  0
   23.6847   33.2392   34.7609 N   0  0  0  0  0  0  0  0  0  0  0  0
   21.7385   34.0225   32.7618 C   0  0  2  0  0  0  0  0  0  0  0  0
   18.5828   37.0436   39.7199 C   0  0  2  0  0  0  0  0  0  0  0  0
   19.3161   38.2867   39.4325 N   0  0  0  0  0  0  0  0  0  0  0  0
   23.0837   33.5557   37.1216 C   0  0  0  0  0  0  0  0  0  0  0  0
   21.6428   34.9743   31.5048 C   0  0  2  0  0  0  0  0  0  0  0  0
   22.5896   36.0238   31.6088 O   0  0  0  0  0  0  0  0  0  0  0  0
   18.9535   36.5193   41.1400 C   0  0  1  0  0  0  0  0  0  0  0  0
   18.6706   37.5212   42.1342 O   0  0  0  0  0  0  0  0  0  0  0  0
   22.3545   34.5450   38.0972 C   0  0  2  0  0  0  0  0  0  0  0  0
   22.4023   34.0337   39.4968 N   0  0  0  0  0  0  0  0  0  0  0  0
   20.1819   35.5610   31.4433 C   0  0  1  0  0  0  0  0  0  0  0  0
   20.0360   36.4917   30.3060 N   0  0  0  0  0  0  0  0  0  0  0  0
   18.1611   35.2170   41.4014 C   0  0  2  0  0  0  0  0  0  0  0  0
   18.4782   34.7248   42.7072 O   0  0  0  0  0  0  0  0  0  0  0  0
   20.8642   34.7357   37.6826 C   0  0  2  0  0  0  0  0  0  0  0  0
   19.1655   34.3825   31.3154 C   0  0  1  0  0  0  0  0  0  0  0  0
   19.4310   33.6895   30.1003 O   0  0  0  0  0  0  0  0  0  0  0  0
   18.5288   34.1595   40.2733 C   0  0  2  0  0  0  0  0  0  0  0  0
   18.2032   34.6912   38.9312 O   0  0  0  0  0  0  0  0  0  0  0  0
   20.8049   35.2652   36.2240 C   0  0  2  0  0  0  0  0  0  0  0  0
   19.4329   35.4007   35.8593 O   0  0  0  0  0  0  0  0  0  0  0  0
   19.3541   33.4190   32.5310 C   0  0  0  0  0  0  0  0  0  0  0  0
   20.7519   32.9334   32.6226 O   0  0  0  0  0  0  0  0  0  0  0  0
   17.7743   32.8102   40.4478 C   0  0  2  0  0  0  0  0  0  0  0  0
   18.1078   32.2443   41.7201 O   0  0  0  0  0  0  0  0  0  0  0  0
   21.4675   34.2829   35.2268 C   0  0  1  0  0  0  0  0  0  0  0  0
   21.3874   34.8729   33.9001 O   0  0  0  0  0  0  0  0  0  0  0  0
   18.1479   31.8046   39.3810 C   0  0  0  0  0  0  0  0  0  0  0  0
   17.7170   34.8710   31.2698 C   0  0  0  0  0  0  0  0  0  0  0  0
   20.1870   37.8689   30.8365 C   0  0  0  0  0  0  0  0  0  0  0  0
  1  2  1  1  0  0  0
  1  6  1  0  0  0  0
  1 23  1  0  0  0  0
  3  4  1  6  0  0  0
  3  8  1  0  0  0  0
  3 30  1  0  0  0  0
  5  9  1  0  0  0  0
  5 27  1  0  0  0  0
  5 31  1  1  0  0  0
  6  7  1  6  0  0  0
  6 11  1  0  0  0  0
  8 13  1  0  0  0  0
  9 10  1  1  0  0  0
  9 15  1  0  0  0  0
 11 12  1  1  0  0  0
 11 17  1  0  0  0  0
 13 14  1  1  0  0  0
 13 19  1  0  0  0  0
 15 16  1  6  0  0  0
 15 20  1  0  0  0  0
 16 34  1  0  0  0  0
 17 18  1  1  0  0  0
 17 22  1  0  0  0  0
 19  2  1  1  0  0  0
 19 24  1  0  0  0  0
 20 21  1  6  0  0  0
 20 26  1  0  0  0  0
 20 33  1  0  0  0  0
 22 23  1  6  0  0  0
 22 28  1  0  0  0  0
 24 25  1  6  0  0  0
 24 30  1  0  0  0  0
 26 27  1  0  0  0  0
 28 29  1  1  0  0  0
 28 32  1  0  0  0  0
 30 31  1  6  0  0  0
M  END
>  <CHROM.1>
-178.22190890,-171.41674790,-98.42270049,-59.60730451,75.07800456,-176.35855469
20.07639551,34.84891873,36.32217695,1.81078513,-0.68531887,1.72412372

>  <Name>
ligand

>  <RI>
0

>  <Rbt.Current_Directory>
/home/itssahil/PROJECTS/Mol_Feturizer/New_Systems/rnas/4p3s

>  <Rbt.Executable>
rbdock ($Id: //depot/dev/client3/rdock/2013.1/src/exe/rbdock.cxx#4 $)

>  <Rbt.Library>
libRbt.so (2013.1, Build901 2013/11/27)

>  <Rbt.Parameter_File>
/export/apps/rDock/src/rDock_2013.1_src/data/scripts/dock_solv.prm

>  <Rbt.Receptor>
prm/pocket_docking_8.prm

>  <SCORE>
-6.01581

>  <SCORE.INTER>
0.746916

>  <SCORE.INTER.CONST>
1

>  <SCORE.INTER.POLAR>
0

>  <SCORE.INTER.ROT>
6

>  <SCORE.INTER.SOLV>
12.283

>  <SCORE.INTER.VDW>
-11.1964

>  <SCORE.INTER.norm>
0.0219681

>  <SCORE.INTRA>
-6.76272

>  <SCORE.INTRA.DIHEDRAL>
-13.3617

>  <SCORE.INTRA.DIHEDRAL.0>
15.8194

>  <SCORE.INTRA.POLAR>
0

>  <SCORE.INTRA.POLAR.0>
0

>  <SCORE.INTRA.REPUL>
0

>  <SCORE.INTRA.REPUL.0>
0

>  <SCORE.INTRA.SOLV>
-0.733676

>  <SCORE.INTRA.SOLV.lig_0>
-71.9159

>  <SCORE.INTRA.VDW>
0.284962

>  <SCORE.INTRA.VDW.0>
-3.53918

>  <SCORE.INTRA.norm>
-0.198904

>  <SCORE.RESTR>
0

>  <SCORE.RESTR.CAVITY>
0

>  <SCORE.RESTR.norm>
0

>  <SCORE.SYSTEM>
0

>  <SCORE.SYSTEM.CONST>
0

>  <SCORE.SYSTEM.DIHEDRAL>
0

>  <SCORE.SYSTEM.SOLV>
0

>  <SCORE.SYSTEM.norm>
0

>  <SCORE.heavy>
34

>  <SCORE.norm>
-0.176936

>  <RMSD>
8.711

$$$$
ligand
 OpenBabel01301917533D
libRbt.so/2013.1/901 2013/11/27
 34 36  0  0  0  0  0  0  0  0999 V2000
   22.1409   30.1497   35.5979 C   0  0  2  0  0  0  0  0  0  0  0  0
   20.9372   30.1476   36.3720 O   0  0  0  0  0  0  0  0  0  0  0  0
   20.5739   25.8918   36.7694 C   0  0  2  0  0  0  0  0  0  0  0  0
   20.0811   24.5599   37.1460 N   0  0  0  0  0  0  0  0  0  0  0  0
   18.1597   25.0975   34.3317 C   0  0  2  0  0  0  0  0  0  0  0  0
   23.2881   30.7693   36.4814 C   0  0  2  0  0  0  0  0  0  0  0  0
   23.4762   29.9929   37.7175 N   0  0  0  0  0  0  0  0  0  0  0  0
   20.7343   26.7329   38.0870 C   0  0  0  0  0  0  0  0  0  0  0  0
   18.5887   23.5862   34.1664 C   0  0  2  0  0  0  0  0  0  0  0  0
   19.1813   23.1092   35.3622 O   0  0  0  0  0  0  0  0  0  0  0  0
   22.9601   32.2535   36.8260 C   0  0  1  0  0  0  0  0  0  0  0  0
   24.0063   32.8238   37.6338 O   0  0  0  0  0  0  0  0  0  0  0  0
   21.2790   28.1486   37.6856 C   0  0  2  0  0  0  0  0  0  0  0  0
   21.4508   29.0073   38.8921 N   0  0  0  0  0  0  0  0  0  0  0  0
   19.6146   23.4946   32.9742 C   0  0  1  0  0  0  0  0  0  0  0  0
   20.0847   22.1068   32.7899 N   0  0  0  0  0  0  0  0  0  0  0  0
   22.7733   33.0316   35.5025 C   0  0  2  0  0  0  0  0  0  0  0  0
   22.4828   34.4017   35.7967 O   0  0  0  0  0  0  0  0  0  0  0  0
   20.3042   28.8587   36.6982 C   0  0  2  0  0  0  0  0  0  0  0  0
   18.9280   24.0137   31.6714 C   0  0  1  0  0  0  0  0  0  0  0  0
   17.8162   23.1723   31.3830 O   0  0  0  0  0  0  0  0  0  0  0  0
   21.6020   32.3519   34.6706 C   0  0  2  0  0  0  0  0  0  0  0  0
   21.9165   30.9342   34.3859 O   0  0  0  0  0  0  0  0  0  0  0  0
   20.1169   27.9693   35.4391 C   0  0  2  0  0  0  0  0  0  0  0  0
   19.1982   28.6257   34.5680 O   0  0  0  0  0  0  0  0  0  0  0  0
   18.4405   25.4794   31.9072 C   0  0  0  0  0  0  0  0  0  0  0  0
   17.5356   25.5650   33.0784 O   0  0  0  0  0  0  0  0  0  0  0  0
   21.3396   33.0644   33.3127 C   0  0  2  0  0  0  0  0  0  0  0  0
   22.5561   33.1053   32.5586 O   0  0  0  0  0  0  0  0  0  0  0  0
   19.5266   26.5827   35.7957 C   0  0  1  0  0  0  0  0  0  0  0  0
   19.4130   25.8166   34.5649 O   0  0  0  0  0  0  0  0  0  0  0  0
   20.8606   34.4874   33.4973 C   0  0  0  0  0  0  0  0  0  0  0  0
   19.8699   23.9754   30.4671 C   0  0  0  0  0  0  0  0  0  0  0  0
   21.5402   22.1643   32.5089 C   0  0  0  0  0  0  0  0  0  0  0  0
  1  2  1  1  0  0  0
  1  6  1  0  0  0  0
  1 23  1  0  0  0  0
  3  4  1  1  0  0  0
  3  8  1  0  0  0  0
  3 30  1  0  0  0  0
  5  9  1  0  0  0  0
  5 27  1  0  0  0  0
  5 31  1  6  0  0  0
  6  7  1  1  0  0  0
  6 11  1  0  0  0  0
  8 13  1  0  0  0  0
  9 10  1  1  0  0  0
  9 15  1  0  0  0  0
 11 12  1  6  0  0  0
 11 17  1  0  0  0  0
 13 14  1  1  0  0  0
 13 19  1  0  0  0  0
 15 16  1  6  0  0  0
 15 20  1  0  0  0  0
 16 34  1  0  0  0  0
 17 18  1  1  0  0  0
 17 22  1  0  0  0  0
 19  2  1  6  0  0  0
 19 24  1  0  0  0  0
 20 21  1  6  0  0  0
 20 26  1  0  0  0  0
 20 33  1  0  0  0  0
 22 23  1  6  0  0  0
 22 28  1  0  0  0  0
 24 25  1  6  0  0  0
 24 30  1  0  0  0  0
 26 27  1  0  0  0  0
 28 29  1  6  0  0  0
 28 32  1  0  0  0  0
 30 31  1  6  0  0  0
M  END
>  <CHROM.1>
-117.43382664,68.19790298,-139.04346022,55.80651454,110.44584920,-121.94537831
20.66483668,28.00666015,34.86775944,-0.45423314,1.19279350,2.33507978

>  <Name>
ligand

>  <RI>
0

>  <Rbt.Current_Directory>
/home/itssahil/PROJECTS/Mol_Feturizer/New_Systems/rnas/4p3s

>  <Rbt.Executable>
rbdock ($Id: //depot/dev/client3/rdock/2013.1/src/exe/rbdock.cxx#4 $)

>  <Rbt.Library>
libRbt.so (2013.1, Build901 2013/11/27)

>  <Rbt.Parameter_File>
/export/apps/rDock/src/rDock_2013.1_src/data/scripts/dock_solv.prm

>  <Rbt.Receptor>
prm/blind_docking_80.prm

>  <SCORE>
10.6255

>  <SCORE.INTER>
-1.45771

>  <SCORE.INTER.CONST>
1

>  <SCORE.INTER.POLAR>
0

>  <SCORE.INTER.ROT>
6

>  <SCORE.INTER.SOLV>
19.2208

>  <SCORE.INTER.VDW>
-14.9787

>  <SCORE.INTER.norm>
-0.0428737

>  <SCORE.INTRA>
8.9704

>  <SCORE.INTRA.DIHEDRAL>
6.52843

>  <SCORE.INTRA.DIHEDRAL.0>
15.8194

>  <SCORE.INTRA.POLAR>
0

>  <SCORE.INTRA.POLAR.0>
0

>  <SCORE.INTRA.REPUL>
0

>  <SCORE.INTRA.REPUL.0>
0

>  <SCORE.INTRA.SOLV>
5.27417

>  <SCORE.INTRA.SOLV.lig_0>
-71.9159

>  <SCORE.INTRA.VDW>
3.06911

>  <SCORE.INTRA.VDW.0>
-3.53918

>  <SCORE.INTRA.norm>
0.263835

>  <SCORE.RESTR>
3.1128

>  <SCORE.RESTR.CAVITY>
3.1128

>  <SCORE.RESTR.norm>
0.0915529

>  <SCORE.SYSTEM>
0

>  <SCORE.SYSTEM.CONST>
0

>  <SCORE.SYSTEM.DIHEDRAL>
0

>  <SCORE.SYSTEM.SOLV>
0

>  <SCORE.SYSTEM.norm>
0

>  <SCORE.heavy>
34

>  <SCORE.norm>
0.312515

>  <RMSD>
8.712

$$$$
ligand
 OpenBabel01301917533D
libRbt.so/2013.1/901 2013/11/27
 34 36  0  0  0  0  0  0  0  0999 V2000
   21.0392   31.4552   38.9151 C   0  0  2  0  0  0  0  0  0  0  0  0
   21.4740   30.4555   37.9879 O   0  0  0  0  0  0  0  0  0  0  0  0
   20.6338   26.3890   36.9108 C   0  0  2  0  0  0  0  0  0  0  0  0
   20.2734   24.9670   36.9927 N   0  0  0  0  0  0  0  0  0  0  0  0
   18.4039   27.7514   35.0463 C   0  0  2  0  0  0  0  0  0  0  0  0
   21.6015   32.8453   38.4331 C   0  0  2  0  0  0  0  0  0  0  0  0
   21.1247   33.1629   37.0775 N   0  0  0  0  0  0  0  0  0  0  0  0
   21.8085   26.6441   37.9228 C   0  0  0  0  0  0  0  0  0  0  0  0
   17.1057   27.3222   34.2552 C   0  0  2  0  0  0  0  0  0  0  0  0
   15.9450   27.7695   34.9344 O   0  0  0  0  0  0  0  0  0  0  0  0
   23.1597   32.8356   38.4641 C   0  0  1  0  0  0  0  0  0  0  0  0
   23.6780   34.1045   38.0241 O   0  0  0  0  0  0  0  0  0  0  0  0
   22.2056   28.1587   37.8206 C   0  0  2  0  0  0  0  0  0  0  0  0
   23.3166   28.4757   38.7627 N   0  0  0  0  0  0  0  0  0  0  0  0
   17.0989   25.7510   34.1388 C   0  0  1  0  0  0  0  0  0  0  0  0
   15.8871   25.2805   33.4380 N   0  0  0  0  0  0  0  0  0  0  0  0
   23.6168   32.5011   39.9033 C   0  0  2  0  0  0  0  0  0  0  0  0
   25.0469   32.4991   39.9565 O   0  0  0  0  0  0  0  0  0  0  0  0
   20.9890   29.0749   38.1521 C   0  0  2  0  0  0  0  0  0  0  0  0
   18.3813   25.2920   33.3752 C   0  0  1  0  0  0  0  0  0  0  0  0
   18.3474   25.8474   32.0646 O   0  0  0  0  0  0  0  0  0  0  0  0
   23.0150   31.0891   40.3158 C   0  0  2  0  0  0  0  0  0  0  0  0
   21.5370   31.1089   40.2443 O   0  0  0  0  0  0  0  0  0  0  0  0
   19.8251   28.7490   37.1770 C   0  0  2  0  0  0  0  0  0  0  0  0
   18.7163   29.5771   37.5213 O   0  0  0  0  0  0  0  0  0  0  0  0
   19.6391   25.8123   34.1425 C   0  0  0  0  0  0  0  0  0  0  0  0
   19.5965   27.2845   34.3125 O   0  0  0  0  0  0  0  0  0  0  0  0
   23.4172   30.6641   41.7574 C   0  0  2  0  0  0  0  0  0  0  0  0
   22.7902   29.4163   42.0736 O   0  0  0  0  0  0  0  0  0  0  0  0
   19.3713   27.2730   37.2941 C   0  0  1  0  0  0  0  0  0  0  0  0
   18.3035   27.0572   36.3309 O   0  0  0  0  0  0  0  0  0  0  0  0
   22.9829   31.6770   42.7937 C   0  0  0  0  0  0  0  0  0  0  0  0
   18.4588   23.7708   33.2380 C   0  0  0  0  0  0  0  0  0  0  0  0
   14.9243   24.8264   34.4712 C   0  0  0  0  0  0  0  0  0  0  0  0
  1  2  1  6  0  0  0
  1  6  1  0  0  0  0
  1 23  1  0  0  0  0
  3  4  1  1  0  0  0
  3  8  1  0  0  0  0
  3 30  1  0  0  0  0
  5  9  1  0  0  0  0
  5 27  1  0  0  0  0
  5 31  1  1  0  0  0
  6  7  1  6  0  0  0
  6 11  1  0  0  0  0
  8 13  1  0  0  0  0
  9 10  1  1  0  0  0
  9 15  1  0  0  0  0
 11 12  1  1  0  0  0
 11 17  1  0  0  0  0
 13 14  1  1  0  0  0
 13 19  1  0  0  0  0
 15 16  1  6  0  0  0
 15 20  1  0  0  0  0
 16 34  1  0  0  0  0
 17 18  1  6  0  0  0
 17 22  1  0  0  0  0
 19  2  1  6  0  0  0
 19 24  1  0  0  0  0
 20 21  1  6  0  0  0
 20 26  1  0  0  0  0
 20 33  1  0  0  0  0
 22 23  1  1  0  0  0
 22 28  1  0  0  0  0
 24 25  1  1  0  0  0
 24 30  1  0  0  0  0
 26 27  1  0  0  0  0
 28 29  1  1  0  0  0
 28 32  1  0  0  0  0
 30 31  1  6  0  0  0
M  END
>  <CHROM.1>
-175.08526853,-140.97690542,-99.67729283,177.44670918,-78.97742771,-179.43667158
20.39527967,28.74592105,37.18744107,0.54206555,-0.87954812,-0.13219662

>  <Name>
ligand

>  <RI>
0

>  <Rbt.Current_Directory>
/home/itssahil/PROJECTS/Mol_Feturizer/New_Systems/rnas/4p3s

>  <Rbt.Executable>
rbdock ($Id: //depot/dev/client3/rdock/2013.1/src/exe/rbdock.cxx#4 $)

>  <Rbt.Library>
libRbt.so (2013.1, Build901 2013/11/27)

>  <Rbt.Parameter_File>
/export/apps/rDock/src/rDock_2013.1_src/data/scripts/dock_solv.prm

>  <Rbt.Receptor>
prm/pocket_docking_4.prm

>  <SCORE>
-8.52958

>  <SCORE.INTER>
-8.11554

>  <SCORE.INTER.CONST>
1

>  <SCORE.INTER.POLAR>
0

>  <SCORE.INTER.ROT>
6

>  <SCORE.INTER.SOLV>
17.9947

>  <SCORE.INTER.VDW>
-19.0086

>  <SCORE.INTER.norm>
-0.238692

>  <SCORE.INTRA>
-0.513051

>  <SCORE.INTRA.DIHEDRAL>
-7.83531

>  <SCORE.INTRA.DIHEDRAL.0>
15.8194

>  <SCORE.INTRA.POLAR>
0

>  <SCORE.INTRA.POLAR.0>
0

>  <SCORE.INTRA.REPUL>
0

>  <SCORE.INTRA.REPUL.0>
0

>  <SCORE.INTRA.SOLV>
2.83806

>  <SCORE.INTRA.SOLV.lig_0>
-71.9159

>  <SCORE.INTRA.VDW>
1.98558

>  <SCORE.INTRA.VDW.0>
-3.53918

>  <SCORE.INTRA.norm>
-0.0150897

>  <SCORE.RESTR>
0.0990033

>  <SCORE.RESTR.CAVITY>
0.0990033

>  <SCORE.RESTR.norm>
0.00291186

>  <SCORE.SYSTEM>
0

>  <SCORE.SYSTEM.CONST>
0

>  <SCORE.SYSTEM.DIHEDRAL>
0

>  <SCORE.SYSTEM.SOLV>
0

>  <SCORE.SYSTEM.norm>
0

>  <SCORE.heavy>
34

>  <SCORE.norm>
-0.25087

>  <RMSD>
8.713

$$$$
ligand
 OpenBabel01301917533D
libRbt.so/2013.1/901 2013/11/27
 34 36  0  0  0  0  0  0  0  0999 V2000
   22.7476   30.4439   36.1242 C   0  0  2  0  0  0  0  0  0  0  0  0
   21.5290   30.4474   36.8747 O   0  0  0  0  0  0  0  0  0  0  0  0
   20.5720   26.2955   36.3771 C   0  0  2  0  0  0  0  0  0  0  0  0
   19.8790   25.0020   36.4503 N   0  0  0  0  0  0  0  0  0  0  0  0
   18.2315   26.7189   33.5922 C   0  0  2  0  0  0  0  0  0  0  0  0
   23.9294   30.7754   37.1112 C   0  0  2  0  0  0  0  0  0  0  0  0
   23.9965   29.7879   38.2003 N   0  0  0  0  0  0  0  0  0  0  0  0
   20.7442   26.8300   37.8447 C   0  0  0  0  0  0  0  0  0  0  0  0
   17.6432   25.3880   34.2070 C   0  0  2  0  0  0  0  0  0  0  0  0
   17.5523   25.4954   35.6172 O   0  0  0  0  0  0  0  0  0  0  0  0
   23.7546   32.2087   37.6980 C   0  0  1  0  0  0  0  0  0  0  0  0
   24.8328   32.5159   38.6010 O   0  0  0  0  0  0  0  0  0  0  0  0
   21.5015   28.2020   37.7667 C   0  0  2  0  0  0  0  0  0  0  0  0
   21.6956   28.7736   39.1298 N   0  0  0  0  0  0  0  0  0  0  0  0
   18.5986   24.1997   33.8102 C   0  0  1  0  0  0  0  0  0  0  0  0
   18.1223   22.9265   34.3872 N   0  0  0  0  0  0  0  0  0  0  0  0
   23.6914   33.2124   36.5230 C   0  0  2  0  0  0  0  0  0  0  0  0
   23.5430   34.5381   37.0413 O   0  0  0  0  0  0  0  0  0  0  0  0
   20.7070   29.2260   36.9010 C   0  0  2  0  0  0  0  0  0  0  0  0
   18.6663   24.0996   32.2534 C   0  0  1  0  0  0  0  0  0  0  0  0
   17.3593   23.8181   31.7635 O   0  0  0  0  0  0  0  0  0  0  0  0
   22.4776   32.8161   35.5765 C   0  0  2  0  0  0  0  0  0  0  0  0
   22.6446   31.4394   35.0598 O   0  0  0  0  0  0  0  0  0  0  0  0
   20.4973   28.6371   35.4795 C   0  0  2  0  0  0  0  0  0  0  0  0
   19.7423   29.5782   34.7191 O   0  0  0  0  0  0  0  0  0  0  0  0
   19.1678   25.4643   31.6811 C   0  0  0  0  0  0  0  0  0  0  0  0
   18.3041   26.5850   32.1240 O   0  0  0  0  0  0  0  0  0  0  0  0
   22.3333   33.7696   34.3558 C   0  0  2  0  0  0  0  0  0  0  0  0
   21.2087   33.3616   33.5689 O   0  0  0  0  0  0  0  0  0  0  0  0
   19.7021   27.3087   35.5175 C   0  0  1  0  0  0  0  0  0  0  0  0
   19.5797   26.8232   34.1522 O   0  0  0  0  0  0  0  0  0  0  0  0
   23.5556   33.7460   33.4647 C   0  0  0  0  0  0  0  0  0  0  0  0
   19.5940   22.9771   31.7863 C   0  0  0  0  0  0  0  0  0  0  0  0
   19.2973   22.2381   34.9756 C   0  0  0  0  0  0  0  0  0  0  0  0
  1  2  1  1  0  0  0
  1  6  1  0  0  0  0
  1 23  1  0  0  0  0
  3  4  1  1  0  0  0
  3  8  1  0  0  0  0
  3 30  1  0  0  0  0
  5  9  1  0  0  0  0
  5 27  1  0  0  0  0
  5 31  1  1  0  0  0
  6  7  1  1  0  0  0
  6 11  1  0  0  0  0
  8 13  1  0  0  0  0
  9 10  1  1  0  0  0
  9 15  1  0  0  0  0
 11 12  1  1  0  0  0
 11 17  1  0  0  0  0
 13 14  1  1  0  0  0
 13 19  1  0  0  0  0
 15 16  1  1  0  0  0
 15 20  1  0  0  0  0
 16 34  1  0  0  0  0
 17 18  1  1  0  0  0
 17 22  1  0  0  0  0
 19  2  1  6  0  0  0
 19 24  1  0  0  0  0
 20 21  1  6  0  0  0
 20 26  1  0  0  0  0
 20 33  1  0  0  0  0
 22 23  1  6  0  0  0
 22 28  1  0  0  0  0
 24 25  1  6  0  0  0
 24 30  1  0  0  0  0
 26 27  1  0  0  0  0
 28 29  1  6  0  0  0
 28 32  1  0  0  0  0
 30 31  1  6  0  0  0
M  END
>  <CHROM.1>
-121.31381753,70.97321819,-134.39563940,-178.98847725,127.59108916,-78.58751020
20.79704754,28.42573752,35.28764529,-0.38627568,1.03282156,2.35328246

>  <Name>
ligand

>  <RI>
0

>  <Rbt.Current_Directory>
/home/itssahil/PROJECTS/Mol_Feturizer/New_Systems/rnas/4p3s

>  <Rbt.Executable>
rbdock ($Id: //depot/dev/client3/rdock/2013.1/src/exe/rbdock.cxx#4 $)

>  <Rbt.Library>
libRbt.so (2013.1, Build901 2013/11/27)

>  <Rbt.Parameter_File>
/export/apps/rDock/src/rDock_2013.1_src/data/scripts/dock_solv.prm

>  <Rbt.Receptor>
prm/blind_docking_80.prm

>  <SCORE>
-1.30709

>  <SCORE.INTER>
-9.49957

>  <SCORE.INTER.CONST>
1

>  <SCORE.INTER.POLAR>
0

>  <SCORE.INTER.ROT>
6

>  <SCORE.INTER.SOLV>
18.6762

>  <SCORE.INTER.VDW>
-20.1585

>  <SCORE.INTER.norm>
-0.279399

>  <SCORE.INTRA>
5.76341

>  <SCORE.INTRA.DIHEDRAL>
1.45318

>  <SCORE.INTRA.DIHEDRAL.0>
15.8194

>  <SCORE.INTRA.POLAR>
0

>  <SCORE.INTRA.POLAR.0>
0

>  <SCORE.INTRA.REPUL>
0

>  <SCORE.INTRA.REPUL.0>
0

>  <SCORE.INTRA.SOLV>
6.8678

>  <SCORE.INTRA.SOLV.lig_0>
-71.9159

>  <SCORE.INTRA.VDW>
1.60292

>  <SCORE.INTRA.VDW.0>
-3.53918

>  <SCORE.INTRA.norm>
0.169512

>  <SCORE.RESTR>
2.42908

>  <SCORE.RESTR.CAVITY>
2.42908

>  <SCORE.RESTR.norm>
0.0714434

>  <SCORE.SYSTEM>
0

>  <SCORE.SYSTEM.CONST>
0

>  <SCORE.SYSTEM.DIHEDRAL>
0

>  <SCORE.SYSTEM.SOLV>
0

>  <SCORE.SYSTEM.norm>
0

>  <SCORE.heavy>
34

>  <SCORE.norm>
-0.0384437

>  <RMSD>
8.715

$$$$
ligand
 OpenBabel01301917533D
libRbt.so/2013.1/901 2013/11/27
 34 36  0  0  0  0  0  0  0  0999 V2000
   21.1513   31.8594   37.5761 C   0  0  2  0  0  0  0  0  0  0  0  0
   21.6098   30.6747   36.9169 O   0  0  0  0  0  0  0  0  0  0  0  0
   20.8477   26.4547   36.8055 C   0  0  2  0  0  0  0  0  0  0  0  0
   20.4799   25.0895   37.2049 N   0  0  0  0  0  0  0  0  0  0  0  0
   18.7554   27.3046   34.5081 C   0  0  2  0  0  0  0  0  0  0  0  0
   21.1123   33.0237   36.5161 C   0  0  2  0  0  0  0  0  0  0  0  0
   20.2203   32.6839   35.3959 N   0  0  0  0  0  0  0  0  0  0  0  0
   21.9423   26.9685   37.8090 C   0  0  0  0  0  0  0  0  0  0  0  0
   17.4055   26.8951   33.7971 C   0  0  2  0  0  0  0  0  0  0  0  0
   16.3214   27.6298   34.3386 O   0  0  0  0  0  0  0  0  0  0  0  0
   22.5484   33.3180   35.9868 C   0  0  1  0  0  0  0  0  0  0  0  0
   22.5173   34.3817   35.0173 O   0  0  0  0  0  0  0  0  0  0  0  0
   22.3483   28.4192   37.3700 C   0  0  2  0  0  0  0  0  0  0  0  0
   23.3848   28.9749   38.2861 N   0  0  0  0  0  0  0  0  0  0  0  0
   17.1832   25.3510   34.0179 C   0  0  1  0  0  0  0  0  0  0  0  0
   15.9139   24.9093   33.4059 N   0  0  0  0  0  0  0  0  0  0  0  0
   23.4496   33.6720   37.1929 C   0  0  2  0  0  0  0  0  0  0  0  0
   24.7721   33.9582   36.7267 O   0  0  0  0  0  0  0  0  0  0  0  0
   21.1115   29.3676   37.3765 C   0  0  2  0  0  0  0  0  0  0  0  0
   18.3858   24.5704   33.3993 C   0  0  1  0  0  0  0  0  0  0  0  0
   18.4195   24.8316   32.0000 O   0  0  0  0  0  0  0  0  0  0  0  0
   23.4409   32.4532   38.2129 C   0  0  2  0  0  0  0  0  0  0  0  0
   22.0643   32.1668   38.6746 O   0  0  0  0  0  0  0  0  0  0  0  0
   20.0248   28.7943   36.4268 C   0  0  2  0  0  0  0  0  0  0  0  0
   18.8942   29.6622   36.4752 O   0  0  0  0  0  0  0  0  0  0  0  0
   19.7079   25.0684   34.0667 C   0  0  0  0  0  0  0  0  0  0  0  0
   19.8681   26.5348   33.9181 O   0  0  0  0  0  0  0  0  0  0  0  0
   24.3203   32.7164   39.4690 C   0  0  2  0  0  0  0  0  0  0  0  0
   24.4910   31.4915   40.1905 O   0  0  0  0  0  0  0  0  0  0  0  0
   19.5610   27.3837   36.8665 C   0  0  1  0  0  0  0  0  0  0  0  0
   18.5694   26.9216   35.9084 O   0  0  0  0  0  0  0  0  0  0  0  0
   23.6905   33.7228   40.4066 C   0  0  0  0  0  0  0  0  0  0  0  0
   18.2537   23.0589   33.5911 C   0  0  0  0  0  0  0  0  0  0  0  0
   14.8875   24.8889   34.4769 C   0  0  0  0  0  0  0  0  0  0  0  0
  1  2  1  6  0  0  0
  1  6  1  0  0  0  0
  1 23  1  0  0  0  0
  3  4  1  1  0  0  0
  3  8  1  0  0  0  0
  3 30  1  0  0  0  0
  5  9  1  0  0  0  0
  5 27  1  0  0  0  0
  5 31  1  1  0  0  0
  6  7  1  6  0  0  0
  6 11  1  0  0  0  0
  8 13  1  0  0  0  0
  9 10  1  1  0  0  0
  9 15  1  0  0  0  0
 11 12  1  6  0  0  0
 11 17  1  0  0  0  0
 13 14  1  1  0  0  0
 13 19  1  0  0  0  0
 15 16  1  6  0  0  0
 15 20  1  0  0  0  0
 16 34  1  0  0  0  0
 17 18  1  6  0  0  0
 17 22  1  0  0  0  0
 19  2  1  6  0  0  0
 19 24  1  0  0  0  0
 20 21  1  6  0  0  0
 20 26  1  0  0  0  0
 20 33  1  0  0  0  0
 22 23  1  1  0  0  0
 22 28  1  0  0  0  0
 24 25  1  1  0  0  0
 24 30  1  0  0  0  0
 26 27  1  0  0  0  0
 28 29  1  1  0  0  0
 28 32  1  0  0  0  0
 30 31  1  6  0  0  0
M  END
>  <CHROM.1>
-148.28672494,-138.27463364,-96.79916343,-167.87859337,-80.07452881,-169.65896112
20.51540638,28.99508206,36.17925368,0.70572542,-0.77203535,-0.20414146

>  <Name>
ligand

>  <RI>
0

>  <Rbt.Current_Directory>
/home/itssahil/PROJECTS/Mol_Feturizer/New_Systems/rnas/4p3s

>  <Rbt.Executable>
rbdock ($Id: //depot/dev/client3/rdock/2013.1/src/exe/rbdock.cxx#4 $)

>  <Rbt.Library>
libRbt.so (2013.1, Build901 2013/11/27)

>  <Rbt.Parameter_File>
/export/apps/rDock/src/rDock_2013.1_src/data/scripts/dock_solv.prm

>  <Rbt.Receptor>
prm/pocket_docking_2.prm

>  <SCORE>
-7.3429

>  <SCORE.INTER>
-10.2

>  <SCORE.INTER.CONST>
1

>  <SCORE.INTER.POLAR>
0

>  <SCORE.INTER.ROT>
6

>  <SCORE.INTER.SOLV>
18.8494

>  <SCORE.INTER.VDW>
-20.6831

>  <SCORE.INTER.norm>
-0.299999

>  <SCORE.INTRA>
1.49443

>  <SCORE.INTRA.DIHEDRAL>
-2.47694

>  <SCORE.INTRA.DIHEDRAL.0>
15.8194

>  <SCORE.INTRA.POLAR>
0

>  <SCORE.INTRA.POLAR.0>
0

>  <SCORE.INTRA.REPUL>
0

>  <SCORE.INTRA.REPUL.0>
0

>  <SCORE.INTRA.SOLV>
2.5057

>  <SCORE.INTRA.SOLV.lig_0>
-71.9159

>  <SCORE.INTRA.VDW>
1.48006

>  <SCORE.INTRA.VDW.0>
-3.53918

>  <SCORE.INTRA.norm>
0.0439539

>  <SCORE.RESTR>
1.36264

>  <SCORE.RESTR.CAVITY>
1.36264

>  <SCORE.RESTR.norm>
0.0400776

>  <SCORE.SYSTEM>
0

>  <SCORE.SYSTEM.CONST>
0

>  <SCORE.SYSTEM.DIHEDRAL>
0

>  <SCORE.SYSTEM.SOLV>
0

>  <SCORE.SYSTEM.norm>
0

>  <SCORE.heavy>
34

>  <SCORE.norm>
-0.215968

>  <RMSD>
8.735

$$$$
ligand
 OpenBabel01301917533D
libRbt.so/2013.1/901 2013/11/27
 34 36  0  0  0  0  0  0  0  0999 V2000
   20.9861   31.7360   37.0944 C   0  0  2  0  0  0  0  0  0  0  0  0
   21.7984   30.5581   37.1264 O   0  0  0  0  0  0  0  0  0  0  0  0
   20.7916   26.3907   36.9819 C   0  0  2  0  0  0  0  0  0  0  0  0
   20.3149   25.0537   37.3611 N   0  0  0  0  0  0  0  0  0  0  0  0
   18.9328   27.3208   34.5369 C   0  0  2  0  0  0  0  0  0  0  0  0
   21.3799   32.5657   35.8149 C   0  0  2  0  0  0  0  0  0  0  0  0
   21.1783   31.7720   34.5920 N   0  0  0  0  0  0  0  0  0  0  0  0
   21.8428   26.8467   38.0571 C   0  0  0  0  0  0  0  0  0  0  0  0
   17.5983   27.0404   33.7394 C   0  0  2  0  0  0  0  0  0  0  0  0
   16.5633   27.8941   34.1962 O   0  0  0  0  0  0  0  0  0  0  0  0
   22.8637   33.0325   35.9116 C   0  0  1  0  0  0  0  0  0  0  0  0
   23.2280   33.7913   34.7438 O   0  0  0  0  0  0  0  0  0  0  0  0
   22.3656   28.2664   37.6407 C   0  0  2  0  0  0  0  0  0  0  0  0
   23.3677   28.7670   38.6245 N   0  0  0  0  0  0  0  0  0  0  0  0
   17.2007   25.5323   33.9624 C   0  0  1  0  0  0  0  0  0  0  0  0
   15.9362   25.2135   33.2696 N   0  0  0  0  0  0  0  0  0  0  0  0
   23.0304   33.8628   37.2059 C   0  0  2  0  0  0  0  0  0  0  0  0
   24.3853   34.3121   37.3079 O   0  0  0  0  0  0  0  0  0  0  0  0
   21.1911   29.2875   37.5562 C   0  0  2  0  0  0  0  0  0  0  0  0
   18.3536   24.6194   33.4374 C   0  0  1  0  0  0  0  0  0  0  0  0
   18.5087   24.8492   32.0408 O   0  0  0  0  0  0  0  0  0  0  0  0
   22.6189   32.9612   38.4484 C   0  0  2  0  0  0  0  0  0  0  0  0
   21.2192   32.4985   38.3187 O   0  0  0  0  0  0  0  0  0  0  0  0
   20.1404   28.7721   36.5355 C   0  0  2  0  0  0  0  0  0  0  0  0
   19.0638   29.7068   36.5006 O   0  0  0  0  0  0  0  0  0  0  0  0
   19.6728   24.9897   34.1885 C   0  0  0  0  0  0  0  0  0  0  0  0
   19.9957   26.4285   34.0341 O   0  0  0  0  0  0  0  0  0  0  0  0
   22.7492   33.7133   39.8040 C   0  0  2  0  0  0  0  0  0  0  0  0
   24.1300   33.9961   40.0558 O   0  0  0  0  0  0  0  0  0  0  0  0
   19.5625   27.3959   36.9483 C   0  0  1  0  0  0  0  0  0  0  0  0
   18.6137   26.9858   35.9254 O   0  0  0  0  0  0  0  0  0  0  0  0
   22.2245   32.8957   40.9637 C   0  0  0  0  0  0  0  0  0  0  0  0
   18.0509   23.1337   33.6374 C   0  0  0  0  0  0  0  0  0  0  0  0
   14.9661   24.7658   34.2988 C   0  0  0  0  0  0  0  0  0  0  0  0
  1  2  1  1  0  0  0
  1  6  1  0  0  0  0
  1 23  1  0  0  0  0
  3  4  1  1  0  0  0
  3  8  1  0  0  0  0
  3 30  1  0  0  0  0
  5  9  1  0  0  0  0
  5 27  1  0  0  0  0
  5 31  1  1  0  0  0
  6  7  1  6  0  0  0
  6 11  1  0  0  0  0
  8 13  1  0  0  0  0
  9 10  1  1  0  0  0
  9 15  1  0  0  0  0
 11 12  1  6  0  0  0
 11 17  1  0  0  0  0
 13 14  1  1  0  0  0
 13 19  1  0  0  0  0
 15 16  1  6  0  0  0
 15 20  1  0  0  0  0
 16 34  1  0  0  0  0
 17 18  1  1  0  0  0
 17 22  1  0  0  0  0
 19  2  1  6  0  0  0
 19 24  1  0  0  0  0
 20 21  1  6  0  0  0
 20 26  1  0  0  0  0
 20 33  1  0  0  0  0
 22 23  1  6  0  0  0
 22 28  1  0  0  0  0
 24 25  1  1  0  0  0
 24 30  1  0  0  0  0
 26 27  1  0  0  0  0
 28 29  1  1  0  0  0
 28 32  1  0  0  0  0
 30 31  1  6  0  0  0
M  END
>  <CHROM.1>
-140.80162175,-173.39778838,-119.97559648,-66.22806965,-78.87706297,-167.85321858
20.43388596,29.05347056,36.19556453,0.52510335,-0.94880152,-0.47247832

>  <Name>
ligand

>  <RI>
0

>  <Rbt.Current_Directory>
/home/itssahil/PROJECTS/Mol_Feturizer/New_Systems/rnas/4p3s

>  <Rbt.Executable>
rbdock ($Id: //depot/dev/client3/rdock/2013.1/src/exe/rbdock.cxx#4 $)

>  <Rbt.Library>
libRbt.so (2013.1, Build901 2013/11/27)

>  <Rbt.Parameter_File>
/export/apps/rDock/src/rDock_2013.1_src/data/scripts/dock_solv.prm

>  <Rbt.Receptor>
prm/pocket_docking_2.prm

>  <SCORE>
-8.74892

>  <SCORE.INTER>
-8.87322

>  <SCORE.INTER.CONST>
1

>  <SCORE.INTER.POLAR>
0

>  <SCORE.INTER.ROT>
6

>  <SCORE.INTER.SOLV>
19.6353

>  <SCORE.INTER.VDW>
-20.0606

>  <SCORE.INTER.norm>
-0.260977

>  <SCORE.INTRA>
-1.33773

>  <SCORE.INTRA.DIHEDRAL>
-6.60774

>  <SCORE.INTRA.DIHEDRAL.0>
15.8194

>  <SCORE.INTRA.POLAR>
0

>  <SCORE.INTRA.POLAR.0>
0

>  <SCORE.INTRA.REPUL>
0

>  <SCORE.INTRA.REPUL.0>
0

>  <SCORE.INTRA.SOLV>
0.695012

>  <SCORE.INTRA.SOLV.lig_0>
-71.9159

>  <SCORE.INTRA.VDW>
1.61863

>  <SCORE.INTRA.VDW.0>
-3.53918

>  <SCORE.INTRA.norm>
-0.039345

>  <SCORE.RESTR>
1.46202

>  <SCORE.RESTR.CAVITY>
1.46202

>  <SCORE.RESTR.norm>
0.0430007

>  <SCORE.SYSTEM>
0

>  <SCORE.SYSTEM.CONST>
0

>  <SCORE.SYSTEM.DIHEDRAL>
0

>  <SCORE.SYSTEM.SOLV>
0

>  <SCORE.SYSTEM.norm>
0

>  <SCORE.heavy>
34

>  <SCORE.norm>
-0.257321

>  <RMSD>
8.740

$$$$
ligand
 OpenBabel01301917533D
libRbt.so/2013.1/901 2013/11/27
 34 36  0  0  0  0  0  0  0  0999 V2000
   22.7314   30.4101   36.1219 C   0  0  2  0  0  0  0  0  0  0  0  0
   21.5111   30.4142   36.8697 O   0  0  0  0  0  0  0  0  0  0  0  0
   20.4954   26.2854   36.3010 C   0  0  2  0  0  0  0  0  0  0  0  0
   19.7776   25.0041   36.3404 N   0  0  0  0  0  0  0  0  0  0  0  0
   18.2896   26.9954   33.3760 C   0  0  2  0  0  0  0  0  0  0  0  0
   23.9125   30.7292   37.1138 C   0  0  2  0  0  0  0  0  0  0  0  0
   23.9725   29.7338   38.1962 N   0  0  0  0  0  0  0  0  0  0  0  0
   20.6335   26.8022   37.7785 C   0  0  0  0  0  0  0  0  0  0  0  0
   17.3925   25.8403   33.9730 C   0  0  2  0  0  0  0  0  0  0  0  0
   17.2081   26.0301   35.3653 O   0  0  0  0  0  0  0  0  0  0  0  0
   23.7431   32.1591   37.7101 C   0  0  1  0  0  0  0  0  0  0  0  0
   24.8208   32.4550   38.6176 O   0  0  0  0  0  0  0  0  0  0  0  0
   21.4172   28.1610   37.7371 C   0  0  2  0  0  0  0  0  0  0  0  0
   21.5810   28.7155   39.1112 N   0  0  0  0  0  0  0  0  0  0  0  0
   18.1147   24.4669   33.6999 C   0  0  1  0  0  0  0  0  0  0  0  0
   17.3419   23.3440   34.2679 N   0  0  0  0  0  0  0  0  0  0  0  0
   23.6873   33.1713   36.5420 C   0  0  2  0  0  0  0  0  0  0  0  0
   23.5440   34.4940   37.0692 O   0  0  0  0  0  0  0  0  0  0  0  0
   20.6671   29.2077   36.8591 C   0  0  2  0  0  0  0  0  0  0  0  0
   18.2903   24.2821   32.1594 C   0  0  1  0  0  0  0  0  0  0  0  0
   16.9989   24.2462   31.5606 O   0  0  0  0  0  0  0  0  0  0  0  0
   22.4739   32.7873   35.5902 C   0  0  2  0  0  0  0  0  0  0  0  0
   22.6355   31.4135   35.0643 O   0  0  0  0  0  0  0  0  0  0  0  0
   20.4891   28.6367   35.4260 C   0  0  2  0  0  0  0  0  0  0  0  0
   19.7739   29.5988   34.6535 O   0  0  0  0  0  0  0  0  0  0  0  0
   19.1060   25.4897   31.5957 C   0  0  0  0  0  0  0  0  0  0  0  0
   18.4556   26.7807   31.9251 O   0  0  0  0  0  0  0  0  0  0  0  0
   22.3368   33.7500   34.3757 C   0  0  2  0  0  0  0  0  0  0  0  0
   21.2256   33.3394   33.5714 O   0  0  0  0  0  0  0  0  0  0  0  0
   19.6696   27.3227   35.4267 C   0  0  1  0  0  0  0  0  0  0  0  0
   19.5791   26.8530   34.0535 O   0  0  0  0  0  0  0  0  0  0  0  0
   23.5703   33.7441   33.4999 C   0  0  0  0  0  0  0  0  0  0  0  0
   19.0048   22.9754   31.8119 C   0  0  0  0  0  0  0  0  0  0  0  0
   15.9198   23.5523   33.9003 C   0  0  0  0  0  0  0  0  0  0  0  0
  1  2  1  1  0  0  0
  1  6  1  0  0  0  0
  1 23  1  0  0  0  0
  3  4  1  1  0  0  0
  3  8  1  0  0  0  0
  3 30  1  0  0  0  0
  5  9  1  0  0  0  0
  5 27  1  0  0  0  0
  5 31  1  1  0  0  0
  6  7  1  1  0  0  0
  6 11  1  0  0  0  0
  8 13  1  0  0  0  0
  9 10  1  1  0  0  0
  9 15  1  0  0  0  0
 11 12  1  1  0  0  0
 11 17  1  0  0  0  0
 13 14  1  1  0  0  0
 13 19  1  0  0  0  0
 15 16  1  6  0  0  0
 15 20  1  0  0  0  0
 16 34  1  0  0  0  0
 17 18  1  1  0  0  0
 17 22  1  0  0  0  0
 19  2  1  6  0  0  0
 19 24  1  0  0  0  0
 20 21  1  6  0  0  0
 20 26  1  0  0  0  0
 20 33  1  0  0  0  0
 22 23  1  6  0  0  0
 22 28  1  0  0  0  0
 24 25  1  6  0  0  0
 24 30  1  0  0  0  0
 26 27  1  0  0  0  0
 28 29  1  6  0  0  0
 28 32  1  0  0  0  0
 30 31  1  6  0  0  0
M  END
>  <CHROM.1>
-122.78447986,72.86553394,45.43091295,-179.94581742,137.92740177,-76.35838281
20.58622861,28.53310934,35.19533056,-0.24751650,0.98398799,2.25557365

>  <Name>
ligand

>  <RI>
0

>  <Rbt.Current_Directory>
/home/itssahil/PROJECTS/Mol_Feturizer/New_Systems/rnas/4p3s

>  <Rbt.Executable>
rbdock ($Id: //depot/dev/client3/rdock/2013.1/src/exe/rbdock.cxx#4 $)

>  <Rbt.Library>
libRbt.so (2013.1, Build901 2013/11/27)

>  <Rbt.Parameter_File>
/export/apps/rDock/src/rDock_2013.1_src/data/scripts/dock_solv.prm

>  <Rbt.Receptor>
prm/blind_docking_80.prm

>  <SCORE>
3.6163

>  <SCORE.INTER>
-8.62342

>  <SCORE.INTER.CONST>
1

>  <SCORE.INTER.POLAR>
0

>  <SCORE.INTER.ROT>
6

>  <SCORE.INTER.SOLV>
19.1624

>  <SCORE.INTER.VDW>
-19.7364

>  <SCORE.INTER.norm>
-0.25363

>  <SCORE.INTRA>
9.80731

>  <SCORE.INTRA.DIHEDRAL>
-0.744284

>  <SCORE.INTRA.DIHEDRAL.0>
15.8194

>  <SCORE.INTRA.POLAR>
0

>  <SCORE.INTRA.POLAR.0>
0

>  <SCORE.INTRA.REPUL>
0

>  <SCORE.INTRA.REPUL.0>
0

>  <SCORE.INTRA.SOLV>
5.41714

>  <SCORE.INTRA.SOLV.lig_0>
-71.9159

>  <SCORE.INTRA.VDW>
7.47088

>  <SCORE.INTRA.VDW.0>
-3.53918

>  <SCORE.INTRA.norm>
0.28845

>  <SCORE.RESTR>
2.43242

>  <SCORE.RESTR.CAVITY>
2.43242

>  <SCORE.RESTR.norm>
0.0715419

>  <SCORE.SYSTEM>
0

>  <SCORE.SYSTEM.CONST>
0

>  <SCORE.SYSTEM.DIHEDRAL>
0

>  <SCORE.SYSTEM.SOLV>
0

>  <SCORE.SYSTEM.norm>
0

>  <SCORE.heavy>
34

>  <SCORE.norm>
0.106362

>  <RMSD>
8.741

$$$$
ligand
 OpenBabel01301917533D
libRbt.so/2013.1/901 2013/11/27
 34 36  0  0  0  0  0  0  0  0999 V2000
   21.1856   32.0332   35.1081 C   0  0  2  0  0  0  0  0  0  0  0  0
   21.8883   30.7866   35.1311 O   0  0  0  0  0  0  0  0  0  0  0  0
   21.3918   26.8053   36.6492 C   0  0  2  0  0  0  0  0  0  0  0  0
   21.0576   25.6752   37.5266 N   0  0  0  0  0  0  0  0  0  0  0  0
   19.3774   26.6688   33.9852 C   0  0  2  0  0  0  0  0  0  0  0  0
   21.0925   32.5132   33.6109 C   0  0  2  0  0  0  0  0  0  0  0  0
   20.3943   31.5170   32.7826 N   0  0  0  0  0  0  0  0  0  0  0  0
   22.3232   27.7794   37.4571 C   0  0  0  0  0  0  0  0  0  0  0  0
   17.9214   26.4369   33.4182 C   0  0  2  0  0  0  0  0  0  0  0  0
   17.0675   27.4997   33.8052 O   0  0  0  0  0  0  0  0  0  0  0  0
   22.5187   32.7784   33.0411 C   0  0  1  0  0  0  0  0  0  0  0  0
   22.4384   33.2174   31.6724 O   0  0  0  0  0  0  0  0  0  0  0  0
   22.6953   28.9761   36.5128 C   0  0  2  0  0  0  0  0  0  0  0  0
   23.5774   29.9484   37.2191 N   0  0  0  0  0  0  0  0  0  0  0  0
   17.3845   25.0698   33.9882 C   0  0  1  0  0  0  0  0  0  0  0  0
   16.0072   24.8102   33.5229 N   0  0  0  0  0  0  0  0  0  0  0  0
   23.2142   33.8298   33.9371 C   0  0  2  0  0  0  0  0  0  0  0  0
   24.5229   34.0972   33.4234 O   0  0  0  0  0  0  0  0  0  0  0  0
   21.4140   29.7199   36.0285 C   0  0  2  0  0  0  0  0  0  0  0  0
   18.3379   23.9197   33.5337 C   0  0  1  0  0  0  0  0  0  0  0  0
   18.3230   23.8589   32.1112 O   0  0  0  0  0  0  0  0  0  0  0  0
   23.2730   33.2749   35.4253 C   0  0  2  0  0  0  0  0  0  0  0  0
   21.9117   32.9951   35.9339 O   0  0  0  0  0  0  0  0  0  0  0  0
   20.4873   28.7133   35.2941 C   0  0  2  0  0  0  0  0  0  0  0  0
   19.3109   29.4107   34.8899 O   0  0  0  0  0  0  0  0  0  0  0  0
   19.7830   24.2325   34.0389 C   0  0  0  0  0  0  0  0  0  0  0  0
   20.2479   25.5557   33.5582 O   0  0  0  0  0  0  0  0  0  0  0  0
   23.9550   34.2686   36.4091 C   0  0  2  0  0  0  0  0  0  0  0  0
   24.4683   33.5434   37.5319 O   0  0  0  0  0  0  0  0  0  0  0  0
   20.0557   27.5476   36.2179 C   0  0  1  0  0  0  0  0  0  0  0  0
   19.2177   26.6491   35.4399 O   0  0  0  0  0  0  0  0  0  0  0  0
   22.9888   35.3089   36.9315 C   0  0  0  0  0  0  0  0  0  0  0  0
   17.8938   22.5565   34.0659 C   0  0  0  0  0  0  0  0  0  0  0  0
   15.0850   25.2387   34.6031 C   0  0  0  0  0  0  0  0  0  0  0  0
  1  2  1  6  0  0  0
  1  6  1  0  0  0  0
  1 23  1  0  0  0  0
  3  4  1  1  0  0  0
  3  8  1  0  0  0  0
  3 30  1  0  0  0  0
  5  9  1  0  0  0  0
  5 27  1  0  0  0  0
  5 31  1  1  0  0  0
  6  7  1  6  0  0  0
  6 11  1  0  0  0  0
  8 13  1  0  0  0  0
  9 10  1  1  0  0  0
  9 15  1  0  0  0  0
 11 12  1  6  0  0  0
 11 17  1  0  0  0  0
 13 14  1  1  0  0  0
 13 19  1  0  0  0  0
 15 16  1  6  0  0  0
 15 20  1  0  0  0  0
 16 34  1  0  0  0  0
 17 18  1  6  0  0  0
 17 22  1  0  0  0  0
 19  2  1  6  0  0  0
 19 24  1  0  0  0  0
 20 21  1  6  0  0  0
 20 26  1  0  0  0  0
 20 33  1  0  0  0  0
 22 23  1  1  0  0  0
 22 28  1  0  0  0  0
 24 25  1  1  0  0  0
 24 30  1  0  0  0  0
 26 27  1  0  0  0  0
 28 29  1  1  0  0  0
 28 32  1  0  0  0  0
 30 31  1  6  0  0  0
M  END
>  <CHROM.1>
-139.33036767,-145.37155250,-97.59998338,-156.24225565,-91.86648973,-144.25836875
20.66536475,29.05382094,34.83081218,0.68702257,-0.84295244,-0.60380592

>  <Name>
ligand

>  <RI>
0

>  <Rbt.Current_Directory>
/home/itssahil/PROJECTS/Mol_Feturizer/New_Systems/rnas/4p3s

>  <Rbt.Executable>
rbdock ($Id: //depot/dev/client3/rdock/2013.1/src/exe/rbdock.cxx#4 $)

>  <Rbt.Library>
libRbt.so (2013.1, Build901 2013/11/27)

>  <Rbt.Parameter_File>
/export/apps/rDock/src/rDock_2013.1_src/data/scripts/dock_solv.prm

>  <Rbt.Receptor>
prm/blind_docking_80.prm

>  <SCORE>
-2.07791

>  <SCORE.INTER>
-10.7314

>  <SCORE.INTER.CONST>
1

>  <SCORE.INTER.POLAR>
0

>  <SCORE.INTER.ROT>
6

>  <SCORE.INTER.SOLV>
21.4687

>  <SCORE.INTER.VDW>
-21.9105

>  <SCORE.INTER.norm>
-0.31563

>  <SCORE.INTRA>
6.43855

>  <SCORE.INTRA.DIHEDRAL>
5.45392

>  <SCORE.INTRA.DIHEDRAL.0>
15.8194

>  <SCORE.INTRA.POLAR>
0

>  <SCORE.INTRA.POLAR.0>
0

>  <SCORE.INTRA.REPUL>
0

>  <SCORE.INTRA.REPUL.0>
0

>  <SCORE.INTRA.SOLV>
1.30027

>  <SCORE.INTRA.SOLV.lig_0>
-71.9159

>  <SCORE.INTRA.VDW>
3.06146

>  <SCORE.INTRA.VDW.0>
-3.53918

>  <SCORE.INTRA.norm>
0.189369

>  <SCORE.RESTR>
2.21495

>  <SCORE.RESTR.CAVITY>
2.21495

>  <SCORE.RESTR.norm>
0.0651456

>  <SCORE.SYSTEM>
0

>  <SCORE.SYSTEM.CONST>
0

>  <SCORE.SYSTEM.DIHEDRAL>
0

>  <SCORE.SYSTEM.SOLV>
0

>  <SCORE.SYSTEM.norm>
0

>  <SCORE.heavy>
34

>  <SCORE.norm>
-0.061115

>  <RMSD>
8.747

$$$$
ligand
 OpenBabel01301917533D
libRbt.so/2013.1/901 2013/11/27
 34 36  0  0  0  0  0  0  0  0999 V2000
   19.5302   36.9971   32.1650 C   0  0  2  0  0  0  0  0  0  0  0  0
   19.7959   35.5982   32.0214 O   0  0  0  0  0  0  0  0  0  0  0  0
   22.3886   32.8142   34.0037 C   0  0  2  0  0  0  0  0  0  0  0  0
   23.5936   32.1328   34.4960 N   0  0  0  0  0  0  0  0  0  0  0  0
   22.6645   35.2200   36.9339 C   0  0  2  0  0  0  0  0  0  0  0  0
   18.1017   37.2862   31.5679 C   0  0  2  0  0  0  0  0  0  0  0  0
   17.0726   36.4960   32.2627 N   0  0  0  0  0  0  0  0  0  0  0  0
   22.5115   32.9351   32.4418 C   0  0  0  0  0  0  0  0  0  0  0  0
   23.9018   34.5930   37.6898 C   0  0  2  0  0  0  0  0  0  0  0  0
   24.8978   34.1994   36.7616 O   0  0  0  0  0  0  0  0  0  0  0  0
   18.0815   36.9683   30.0423 C   0  0  1  0  0  0  0  0  0  0  0  0
   16.7773   37.2311   29.4924 O   0  0  0  0  0  0  0  0  0  0  0  0
   21.2154   33.6457   31.9151 C   0  0  2  0  0  0  0  0  0  0  0  0
   21.2659   33.8003   30.4333 N   0  0  0  0  0  0  0  0  0  0  0  0
   23.3960   33.3462   38.5095 C   0  0  1  0  0  0  0  0  0  0  0  0
   24.5159   32.6899   39.2137 N   0  0  0  0  0  0  0  0  0  0  0  0
   19.1732   37.8193   29.3523 C   0  0  2  0  0  0  0  0  0  0  0  0
   19.1635   37.5511   27.9466 O   0  0  0  0  0  0  0  0  0  0  0  0
   21.0530   35.0544   32.5620 C   0  0  2  0  0  0  0  0  0  0  0  0
   22.3115   33.8148   39.5306 C   0  0  1  0  0  0  0  0  0  0  0  0
   22.9115   34.7406   40.4308 O   0  0  0  0  0  0  0  0  0  0  0  0
   20.5806   37.4712   30.0036 C   0  0  2  0  0  0  0  0  0  0  0  0
   20.5667   37.7454   31.4578 O   0  0  0  0  0  0  0  0  0  0  0  0
   21.0027   34.9031   34.1067 C   0  0  2  0  0  0  0  0  0  0  0  0
   20.8858   36.2062   34.6741 O   0  0  0  0  0  0  0  0  0  0  0  0
   21.1487   34.5075   38.7498 C   0  0  0  0  0  0  0  0  0  0  0  0
   21.6489   35.6317   37.9228 O   0  0  0  0  0  0  0  0  0  0  0  0
   21.7491   38.2844   29.3759 C   0  0  2  0  0  0  0  0  0  0  0  0
   21.8023   38.0244   27.9689 O   0  0  0  0  0  0  0  0  0  0  0  0
   22.2940   34.2552   34.6647 C   0  0  1  0  0  0  0  0  0  0  0  0
   22.1437   34.1313   36.1058 O   0  0  0  0  0  0  0  0  0  0  0  0
   23.0895   37.9083   29.9679 C   0  0  0  0  0  0  0  0  0  0  0  0
   21.7537   32.6537   40.3549 C   0  0  0  0  0  0  0  0  0  0  0  0
   24.3923   31.2299   38.9814 C   0  0  0  0  0  0  0  0  0  0  0  0
  1  2  1  6  0  0  0
  1  6  1  0  0  0  0
  1 23  1  0  0  0  0
  3  4  1  1  0  0  0
  3  8  1  0  0  0  0
  3 30  1  0  0  0  0
  5  9  1  0  0  0  0
  5 27  1  0  0  0  0
  5 31  1  6  0  0  0
  6  7  1  1  0  0  0
  6 11  1  0  0  0  0
  8 13  1  0  0  0  0
  9 10  1  6  0  0  0
  9 15  1  0  0  0  0
 11 12  1  6  0  0  0
 11 17  1  0  0  0  0
 13 14  1  6  0  0  0
 13 19  1  0  0  0  0
 15 16  1  1  0  0  0
 15 20  1  0  0  0  0
 16 34  1  0  0  0  0
 17 18  1  6  0  0  0
 17 22  1  0  0  0  0
 19  2  1  6  0  0  0
 19 24  1  0  0  0  0
 20 21  1  1  0  0  0
 20 26  1  0  0  0  0
 20 33  1  0  0  0  0
 22 23  1  1  0  0  0
 22 28  1  0  0  0  0
 24 25  1  1  0  0  0
 24 30  1  0  0  0  0
 26 27  1  0  0  0  0
 28 29  1  6  0  0  0
 28 32  1  0  0  0  0
 30 31  1  1  0  0  0
M  END
>  <CHROM.1>
-177.20829755,-164.87296743,-133.82725969,-58.37361826,151.32058728,-111.16983638
21.39571640,35.25433346,33.94325734,1.96520836,0.48799608,-1.36234471

>  <Name>
ligand

>  <RI>
0

>  <Rbt.Current_Directory>
/home/itssahil/PROJECTS/Mol_Feturizer/New_Systems/rnas/4p3s

>  <Rbt.Executable>
rbdock ($Id: //depot/dev/client3/rdock/2013.1/src/exe/rbdock.cxx#4 $)

>  <Rbt.Library>
libRbt.so (2013.1, Build901 2013/11/27)

>  <Rbt.Parameter_File>
/export/apps/rDock/src/rDock_2013.1_src/data/scripts/dock_solv.prm

>  <Rbt.Receptor>
prm/blind_docking_60.prm

>  <SCORE>
5.21672

>  <SCORE.INTER>
-0.434059

>  <SCORE.INTER.CONST>
1

>  <SCORE.INTER.POLAR>
0

>  <SCORE.INTER.ROT>
6

>  <SCORE.INTER.SOLV>
15.4367

>  <SCORE.INTER.VDW>
-13.0349

>  <SCORE.INTER.norm>
-0.0127664

>  <SCORE.INTRA>
-1.70122

>  <SCORE.INTRA.DIHEDRAL>
-3.46935

>  <SCORE.INTRA.DIHEDRAL.0>
15.8194

>  <SCORE.INTRA.POLAR>
0

>  <SCORE.INTRA.POLAR.0>
0

>  <SCORE.INTRA.REPUL>
0

>  <SCORE.INTRA.REPUL.0>
0

>  <SCORE.INTRA.SOLV>
-0.120052

>  <SCORE.INTRA.SOLV.lig_0>
-71.9159

>  <SCORE.INTRA.VDW>
0.0934801

>  <SCORE.INTRA.VDW.0>
-3.53918

>  <SCORE.INTRA.norm>
-0.050036

>  <SCORE.RESTR>
7.35201

>  <SCORE.RESTR.CAVITY>
7.35201

>  <SCORE.RESTR.norm>
0.216236

>  <SCORE.SYSTEM>
0

>  <SCORE.SYSTEM.CONST>
0

>  <SCORE.SYSTEM.DIHEDRAL>
0

>  <SCORE.SYSTEM.SOLV>
0

>  <SCORE.SYSTEM.norm>
0

>  <SCORE.heavy>
34

>  <SCORE.norm>
0.153433

>  <RMSD>
8.748

$$$$
ligand
 OpenBabel01301917533D
libRbt.so/2013.1/901 2013/11/27
 34 36  0  0  0  0  0  0  0  0999 V2000
   21.4798   31.9014   36.6775 C   0  0  2  0  0  0  0  0  0  0  0  0
   22.1739   30.6516   36.7445 O   0  0  0  0  0  0  0  0  0  0  0  0
   20.8675   26.5745   37.0132 C   0  0  2  0  0  0  0  0  0  0  0  0
   20.2933   25.3210   37.5209 N   0  0  0  0  0  0  0  0  0  0  0  0
   19.0474   27.4702   34.4680 C   0  0  2  0  0  0  0  0  0  0  0  0
   22.4909   32.9941   36.1634 C   0  0  2  0  0  0  0  0  0  0  0  0
   23.0248   32.6340   34.8400 N   0  0  0  0  0  0  0  0  0  0  0  0
   21.9445   27.0614   38.0486 C   0  0  0  0  0  0  0  0  0  0  0  0
   17.6906   27.1949   33.7073 C   0  0  2  0  0  0  0  0  0  0  0  0
   16.6914   28.1026   34.1389 O   0  0  0  0  0  0  0  0  0  0  0  0
   23.6576   33.1697   37.1817 C   0  0  1  0  0  0  0  0  0  0  0  0
   24.5844   34.1676   36.7155 O   0  0  0  0  0  0  0  0  0  0  0  0
   22.5709   28.3898   37.4960 C   0  0  2  0  0  0  0  0  0  0  0  0
   23.6024   28.9152   38.4353 N   0  0  0  0  0  0  0  0  0  0  0  0
   17.2498   25.7129   34.0104 C   0  0  1  0  0  0  0  0  0  0  0  0
   15.9635   25.4020   33.3550 N   0  0  0  0  0  0  0  0  0  0  0  0
   23.0540   33.5490   38.5543 C   0  0  2  0  0  0  0  0  0  0  0  0
   24.1110   33.7271   39.5025 O   0  0  0  0  0  0  0  0  0  0  0  0
   21.4740   29.4786   37.2943 C   0  0  2  0  0  0  0  0  0  0  0  0
   18.3637   24.7389   33.5116 C   0  0  1  0  0  0  0  0  0  0  0  0
   18.5007   24.8957   32.1031 O   0  0  0  0  0  0  0  0  0  0  0  0
   22.0509   32.4021   39.0064 C   0  0  2  0  0  0  0  0  0  0  0  0
   20.9723   32.2267   38.0084 O   0  0  0  0  0  0  0  0  0  0  0  0
   20.3930   28.9383   36.3191 C   0  0  2  0  0  0  0  0  0  0  0  0
   19.3874   29.9394   36.1767 O   0  0  0  0  0  0  0  0  0  0  0  0
   19.7073   25.1023   34.2218 C   0  0  0  0  0  0  0  0  0  0  0  0
   20.0724   26.5207   33.9919 O   0  0  0  0  0  0  0  0  0  0  0  0
   21.3853   32.6957   40.3816 C   0  0  2  0  0  0  0  0  0  0  0  0
   21.0385   34.0831   40.4512 O   0  0  0  0  0  0  0  0  0  0  0  0
   19.7149   27.6566   36.8632 C   0  0  1  0  0  0  0  0  0  0  0  0
   18.7432   27.2132   35.8763 O   0  0  0  0  0  0  0  0  0  0  0  0
   22.3089   32.3900   41.5401 C   0  0  0  0  0  0  0  0  0  0  0  0
   18.0181   23.2752   33.7890 C   0  0  0  0  0  0  0  0  0  0  0  0
   15.0311   24.9295   34.4077 C   0  0  0  0  0  0  0  0  0  0  0  0
  1  2  1  1  0  0  0
  1  6  1  0  0  0  0
  1 23  1  0  0  0  0
  3  4  1  1  0  0  0
  3  8  1  0  0  0  0
  3 30  1  0  0  0  0
  5  9  1  0  0  0  0
  5 27  1  0  0  0  0
  5 31  1  1  0  0  0
  6  7  1  6  0  0  0
  6 11  1  0  0  0  0
  8 13  1  0  0  0  0
  9 10  1  1  0  0  0
  9 15  1  0  0  0  0
 11 12  1  6  0  0  0
 11 17  1  0  0  0  0
 13 14  1  1  0  0  0
 13 19  1  0  0  0  0
 15 16  1  6  0  0  0
 15 20  1  0  0  0  0
 16 34  1  0  0  0  0
 17 18  1  1  0  0  0
 17 22  1  0  0  0  0
 19  2  1  6  0  0  0
 19 24  1  0  0  0  0
 20 21  1  6  0  0  0
 20 26  1  0  0  0  0
 20 33  1  0  0  0  0
 22 23  1  6  0  0  0
 22 28  1  0  0  0  0
 24 25  1  1  0  0  0
 24 30  1  0  0  0  0
 26 27  1  0  0  0  0
 28 29  1  6  0  0  0
 28 32  1  0  0  0  0
 30 31  1  6  0  0  0
M  END
>  <CHROM.1>
175.53450251,-168.71632296,-124.52121885,40.81092081,-83.29049165,-167.09012624
20.50762666,29.12569893,36.42705490,0.41735424,-1.00197698,-0.53803768

>  <Name>
ligand

>  <RI>
0

>  <Rbt.Current_Directory>
/home/itssahil/PROJECTS/Mol_Feturizer/New_Systems/rnas/4p3s

>  <Rbt.Executable>
rbdock ($Id: //depot/dev/client3/rdock/2013.1/src/exe/rbdock.cxx#4 $)

>  <Rbt.Library>
libRbt.so (2013.1, Build901 2013/11/27)

>  <Rbt.Parameter_File>
/export/apps/rDock/src/rDock_2013.1_src/data/scripts/dock_solv.prm

>  <Rbt.Receptor>
prm/pocket_docking_2.prm

>  <SCORE>
-7.99907

>  <SCORE.INTER>
-6.24525

>  <SCORE.INTER.CONST>
1

>  <SCORE.INTER.POLAR>
0

>  <SCORE.INTER.ROT>
6

>  <SCORE.INTER.SOLV>
21.5126

>  <SCORE.INTER.VDW>
-18.9344

>  <SCORE.INTER.norm>
-0.183684

>  <SCORE.INTRA>
-3.10551

>  <SCORE.INTRA.DIHEDRAL>
-9.49143

>  <SCORE.INTRA.DIHEDRAL.0>
15.8194

>  <SCORE.INTRA.POLAR>
0

>  <SCORE.INTRA.POLAR.0>
0

>  <SCORE.INTRA.REPUL>
0

>  <SCORE.INTRA.REPUL.0>
0

>  <SCORE.INTRA.SOLV>
-0.107254

>  <SCORE.INTRA.SOLV.lig_0>
-71.9159

>  <SCORE.INTRA.VDW>
1.69383

>  <SCORE.INTRA.VDW.0>
-3.53918

>  <SCORE.INTRA.norm>
-0.0913386

>  <SCORE.RESTR>
1.35169

>  <SCORE.RESTR.CAVITY>
1.35169

>  <SCORE.RESTR.norm>
0.0397556

>  <SCORE.SYSTEM>
0

>  <SCORE.SYSTEM.CONST>
0

>  <SCORE.SYSTEM.DIHEDRAL>
0

>  <SCORE.SYSTEM.SOLV>
0

>  <SCORE.SYSTEM.norm>
0

>  <SCORE.heavy>
34

>  <SCORE.norm>
-0.235267

>  <RMSD>
8.750

$$$$
ligand
 OpenBabel01301917533D
libRbt.so/2013.1/901 2013/11/27
 34 36  0  0  0  0  0  0  0  0999 V2000
   19.9148   36.3615   30.9361 C   0  0  2  0  0  0  0  0  0  0  0  0
   19.3430   35.0656   30.7315 O   0  0  0  0  0  0  0  0  0  0  0  0
   20.2658   31.3357   32.6390 C   0  0  2  0  0  0  0  0  0  0  0  0
   20.9229   30.0687   32.9877 N   0  0  0  0  0  0  0  0  0  0  0  0
   22.6685   31.8761   34.9152 C   0  0  2  0  0  0  0  0  0  0  0  0
   18.8277   37.4387   30.5640 C   0  0  2  0  0  0  0  0  0  0  0  0
   17.6217   37.2751   31.3916 N   0  0  0  0  0  0  0  0  0  0  0  0
   19.9563   31.3063   31.0987 C   0  0  0  0  0  0  0  0  0  0  0  0
   22.4907   31.8532   36.4847 C   0  0  2  0  0  0  0  0  0  0  0  0
   21.3289   31.1224   36.8378 O   0  0  0  0  0  0  0  0  0  0  0  0
   18.4590   37.3318   29.0534 C   0  0  1  0  0  0  0  0  0  0  0  0
   17.4653   38.3147   28.7089 O   0  0  0  0  0  0  0  0  0  0  0  0
   19.2371   32.6516   30.7311 C   0  0  2  0  0  0  0  0  0  0  0  0
   18.9171   32.6961   29.2758 N   0  0  0  0  0  0  0  0  0  0  0  0
   22.3732   33.3418   36.9871 C   0  0  1  0  0  0  0  0  0  0  0  0
   22.1678   33.3892   38.4488 N   0  0  0  0  0  0  0  0  0  0  0  0
   19.7508   37.5114   28.2222 C   0  0  2  0  0  0  0  0  0  0  0  0
   19.4321   37.4287   26.8295 O   0  0  0  0  0  0  0  0  0  0  0  0
   20.1346   33.8756   31.0858 C   0  0  2  0  0  0  0  0  0  0  0  0
   23.6720   34.1149   36.5952 C   0  0  1  0  0  0  0  0  0  0  0  0
   24.7769   33.4983   37.2481 O   0  0  0  0  0  0  0  0  0  0  0  0
   20.7941   36.3914   28.6501 C   0  0  2  0  0  0  0  0  0  0  0  0
   21.1023   36.4873   30.0944 O   0  0  0  0  0  0  0  0  0  0  0  0
   20.4757   33.8355   32.6002 C   0  0  2  0  0  0  0  0  0  0  0  0
   21.3217   34.9461   32.8914 O   0  0  0  0  0  0  0  0  0  0  0  0
   23.8574   34.0376   35.0456 C   0  0  0  0  0  0  0  0  0  0  0  0
   23.8901   32.6318   34.5758 O   0  0  0  0  0  0  0  0  0  0  0  0
   22.1355   36.4916   27.8684 C   0  0  2  0  0  0  0  0  0  0  0  0
   22.5721   37.8552   27.8535 O   0  0  0  0  0  0  0  0  0  0  0  0
   21.2374   32.5433   32.9854 C   0  0  1  0  0  0  0  0  0  0  0  0
   21.4880   32.5836   34.4173 O   0  0  0  0  0  0  0  0  0  0  0  0
   21.9960   36.0339   26.4332 C   0  0  0  0  0  0  0  0  0  0  0  0
   23.6269   35.5797   37.0325 C   0  0  0  0  0  0  0  0  0  0  0  0
   21.1251   34.4096   38.7182 C   0  0  0  0  0  0  0  0  0  0  0  0
  1  2  1  6  0  0  0
  1  6  1  0  0  0  0
  1 23  1  0  0  0  0
  3  4  1  6  0  0  0
  3  8  1  0  0  0  0
  3 30  1  0  0  0  0
  5  9  1  0  0  0  0
  5 27  1  0  0  0  0
  5 31  1  6  0  0  0
  6  7  1  1  0  0  0
  6 11  1  0  0  0  0
  8 13  1  0  0  0  0
  9 10  1  6  0  0  0
  9 15  1  0  0  0  0
 11 12  1  6  0  0  0
 11 17  1  0  0  0  0
 13 14  1  6  0  0  0
 13 19  1  0  0  0  0
 15 16  1  1  0  0  0
 15 20  1  0  0  0  0
 16 34  1  0  0  0  0
 17 18  1  6  0  0  0
 17 22  1  0  0  0  0
 19  2  1  1  0  0  0
 19 24  1  0  0  0  0
 20 21  1  1  0  0  0
 20 26  1  0  0  0  0
 20 33  1  0  0  0  0
 22 23  1  1  0  0  0
 22 28  1  0  0  0  0
 24 25  1  6  0  0  0
 24 30  1  0  0  0  0
 26 27  1  0  0  0  0
 28 29  1  6  0  0  0
 28 32  1  0  0  0  0
 30 31  1  1  0  0  0
M  END
>  <CHROM.1>
-176.42009332,-179.50331864,-137.14031952,46.41545321,92.94408968,-168.55901012
21.05798898,34.48935179,32.37863326,-2.27926457,1.09701410,2.67068745

>  <Name>
ligand

>  <RI>
0

>  <Rbt.Current_Directory>
/home/itssahil/PROJECTS/Mol_Feturizer/New_Systems/rnas/4p3s

>  <Rbt.Executable>
rbdock ($Id: //depot/dev/client3/rdock/2013.1/src/exe/rbdock.cxx#4 $)

>  <Rbt.Library>
libRbt.so (2013.1, Build901 2013/11/27)

>  <Rbt.Parameter_File>
/export/apps/rDock/src/rDock_2013.1_src/data/scripts/dock_solv.prm

>  <Rbt.Receptor>
prm/blind_docking_100.prm

>  <SCORE>
-0.187218

>  <SCORE.INTER>
1.8705

>  <SCORE.INTER.CONST>
1

>  <SCORE.INTER.POLAR>
0

>  <SCORE.INTER.ROT>
6

>  <SCORE.INTER.SOLV>
12.3664

>  <SCORE.INTER.VDW>
-10.4751

>  <SCORE.INTER.norm>
0.0550147

>  <SCORE.INTRA>
-4.1129

>  <SCORE.INTRA.DIHEDRAL>
-9.33729

>  <SCORE.INTRA.DIHEDRAL.0>
15.8194

>  <SCORE.INTRA.POLAR>
0

>  <SCORE.INTRA.POLAR.0>
0

>  <SCORE.INTRA.REPUL>
0

>  <SCORE.INTRA.REPUL.0>
0

>  <SCORE.INTRA.SOLV>
-1.06468

>  <SCORE.INTRA.SOLV.lig_0>
-71.9159

>  <SCORE.INTRA.VDW>
1.08809

>  <SCORE.INTRA.VDW.0>
-3.53918

>  <SCORE.INTRA.norm>
-0.120968

>  <SCORE.RESTR>
2.05518

>  <SCORE.RESTR.CAVITY>
2.05518

>  <SCORE.RESTR.norm>
0.0604465

>  <SCORE.SYSTEM>
0

>  <SCORE.SYSTEM.CONST>
0

>  <SCORE.SYSTEM.DIHEDRAL>
0

>  <SCORE.SYSTEM.SOLV>
0

>  <SCORE.SYSTEM.norm>
0

>  <SCORE.heavy>
34

>  <SCORE.norm>
-0.00550641

>  <RMSD>
8.752

$$$$
ligand
 OpenBabel01301917533D
libRbt.so/2013.1/901 2013/11/27
 34 36  0  0  0  0  0  0  0  0999 V2000
   20.6033   35.5494   29.7942 C   0  0  2  0  0  0  0  0  0  0  0  0
   20.1737   35.0473   31.0637 O   0  0  0  0  0  0  0  0  0  0  0  0
   20.6963   31.5958   33.5569 C   0  0  2  0  0  0  0  0  0  0  0  0
   21.2154   30.3393   34.1140 N   0  0  0  0  0  0  0  0  0  0  0  0
   23.2230   33.7754   35.4779 C   0  0  2  0  0  0  0  0  0  0  0  0
   21.4672   36.8418   30.0477 C   0  0  2  0  0  0  0  0  0  0  0  0
   22.6296   36.5378   30.8976 N   0  0  0  0  0  0  0  0  0  0  0  0
   20.3843   31.3523   32.0362 C   0  0  0  0  0  0  0  0  0  0  0  0
   24.0611   32.8546   36.4502 C   0  0  2  0  0  0  0  0  0  0  0  0
   24.4783   31.6793   35.7772 O   0  0  0  0  0  0  0  0  0  0  0  0
   20.5951   37.9508   30.7099 C   0  0  1  0  0  0  0  0  0  0  0  0
   21.3810   39.1341   30.9436 O   0  0  0  0  0  0  0  0  0  0  0  0
   19.8119   32.6892   31.4469 C   0  0  2  0  0  0  0  0  0  0  0  0
   19.4973   32.5329   29.9981 N   0  0  0  0  0  0  0  0  0  0  0  0
   23.1510   32.4848   37.6819 C   0  0  1  0  0  0  0  0  0  0  0  0
   23.8664   31.5915   38.6153 N   0  0  0  0  0  0  0  0  0  0  0  0
   19.3896   38.2404   29.7853 C   0  0  2  0  0  0  0  0  0  0  0  0
   18.5812   39.2663   30.3700 O   0  0  0  0  0  0  0  0  0  0  0  0
   20.8346   33.8531   31.6163 C   0  0  2  0  0  0  0  0  0  0  0  0
   22.7202   33.7981   38.4085 C   0  0  1  0  0  0  0  0  0  0  0  0
   23.8910   34.4528   38.8859 O   0  0  0  0  0  0  0  0  0  0  0  0
   18.5681   36.8954   29.5798 C   0  0  2  0  0  0  0  0  0  0  0  0
   19.4238   35.8451   28.9844 O   0  0  0  0  0  0  0  0  0  0  0  0
   21.1706   34.0210   33.1230 C   0  0  2  0  0  0  0  0  0  0  0  0
   22.1299   35.0689   33.2470 O   0  0  0  0  0  0  0  0  0  0  0  0
   21.9732   34.7172   37.3894 C   0  0  0  0  0  0  0  0  0  0  0  0
   22.8119   34.9959   36.1990 O   0  0  0  0  0  0  0  0  0  0  0  0
   17.3311   37.0839   28.6552 C   0  0  2  0  0  0  0  0  0  0  0  0
   17.7391   37.7388   27.4490 O   0  0  0  0  0  0  0  0  0  0  0  0
   21.7910   32.7346   33.7220 C   0  0  1  0  0  0  0  0  0  0  0  0
   22.0455   32.9776   35.1330 O   0  0  0  0  0  0  0  0  0  0  0  0
   16.2579   37.9312   29.3025 C   0  0  0  0  0  0  0  0  0  0  0  0
   21.8140   33.5235   39.6094 C   0  0  0  0  0  0  0  0  0  0  0  0
   23.7657   30.2130   38.0765 C   0  0  0  0  0  0  0  0  0  0  0  0
  1  2  1  1  0  0  0
  1  6  1  0  0  0  0
  1 23  1  0  0  0  0
  3  4  1  6  0  0  0
  3  8  1  0  0  0  0
  3 30  1  0  0  0  0
  5  9  1  0  0  0  0
  5 27  1  0  0  0  0
  5 31  1  1  0  0  0
  6  7  1  1  0  0  0
  6 11  1  0  0  0  0
  8 13  1  0  0  0  0
  9 10  1  6  0  0  0
  9 15  1  0  0  0  0
 11 12  1  6  0  0  0
 11 17  1  0  0  0  0
 13 14  1  6  0  0  0
 13 19  1  0  0  0  0
 15 16  1  1  0  0  0
 15 20  1  0  0  0  0
 16 34  1  0  0  0  0
 17 18  1  1  0  0  0
 17 22  1  0  0  0  0
 19  2  1  1  0  0  0
 19 24  1  0  0  0  0
 20 21  1  1  0  0  0
 20 26  1  0  0  0  0
 20 33  1  0  0  0  0
 22 23  1  6  0  0  0
 22 28  1  0  0  0  0
 24 25  1  6  0  0  0
 24 30  1  0  0  0  0
 26 27  1  0  0  0  0
 28 29  1  6  0  0  0
 28 32  1  0  0  0  0
 30 31  1  1  0  0  0
M  END
>  <CHROM.1>
-104.56060524,-105.98062890,-81.39705654,50.66029226,166.92468730,-123.63896684
21.16262791,34.60479767,33.18603878,2.69318449,-1.09345320,0.02982293

>  <Name>
ligand

>  <RI>
0

>  <Rbt.Current_Directory>
/home/itssahil/PROJECTS/Mol_Feturizer/New_Systems/rnas/4p3s

>  <Rbt.Executable>
rbdock ($Id: //depot/dev/client3/rdock/2013.1/src/exe/rbdock.cxx#4 $)

>  <Rbt.Library>
libRbt.so (2013.1, Build901 2013/11/27)

>  <Rbt.Parameter_File>
/export/apps/rDock/src/rDock_2013.1_src/data/scripts/dock_solv.prm

>  <Rbt.Receptor>
prm/blind_docking_100.prm

>  <SCORE>
5.06688

>  <SCORE.INTER>
-1.32394

>  <SCORE.INTER.CONST>
1

>  <SCORE.INTER.POLAR>
0

>  <SCORE.INTER.ROT>
6

>  <SCORE.INTER.SOLV>
14.9646

>  <SCORE.INTER.VDW>
-13.4708

>  <SCORE.INTER.norm>
-0.0389396

>  <SCORE.INTRA>
4.99917

>  <SCORE.INTRA.DIHEDRAL>
5.16145

>  <SCORE.INTRA.DIHEDRAL.0>
15.8194

>  <SCORE.INTRA.POLAR>
0

>  <SCORE.INTRA.POLAR.0>
0

>  <SCORE.INTRA.REPUL>
0

>  <SCORE.INTRA.REPUL.0>
0

>  <SCORE.INTRA.SOLV>
1.4171

>  <SCORE.INTRA.SOLV.lig_0>
-71.9159

>  <SCORE.INTRA.VDW>
1.7099

>  <SCORE.INTRA.VDW.0>
-3.53918

>  <SCORE.INTRA.norm>
0.147035

>  <SCORE.RESTR>
1.39165

>  <SCORE.RESTR.CAVITY>
1.39165

>  <SCORE.RESTR.norm>
0.040931

>  <SCORE.SYSTEM>
0

>  <SCORE.SYSTEM.CONST>
0

>  <SCORE.SYSTEM.DIHEDRAL>
0

>  <SCORE.SYSTEM.SOLV>
0

>  <SCORE.SYSTEM.norm>
0

>  <SCORE.heavy>
34

>  <SCORE.norm>
0.149026

>  <RMSD>
8.771

$$$$
ligand
 OpenBabel01301917533D
libRbt.so/2013.1/901 2013/11/27
 34 36  0  0  0  0  0  0  0  0999 V2000
   21.5974   31.7807   40.3561 C   0  0  2  0  0  0  0  0  0  0  0  0
   21.1871   30.4534   40.0125 O   0  0  0  0  0  0  0  0  0  0  0  0
   17.5130   28.6911   38.6718 C   0  0  2  0  0  0  0  0  0  0  0  0
   16.1197   28.2273   38.6268 N   0  0  0  0  0  0  0  0  0  0  0  0
   15.5057   30.7047   37.3368 C   0  0  2  0  0  0  0  0  0  0  0  0
   23.1262   31.9250   40.0055 C   0  0  2  0  0  0  0  0  0  0  0  0
   23.3631   31.6703   38.5755 N   0  0  0  0  0  0  0  0  0  0  0  0
   18.1745   28.0943   39.9661 C   0  0  0  0  0  0  0  0  0  0  0  0
   15.2846   30.6206   35.7750 C   0  0  2  0  0  0  0  0  0  0  0  0
   15.9048   29.4585   35.2520 O   0  0  0  0  0  0  0  0  0  0  0  0
   23.9719   30.9432   40.8715 C   0  0  1  0  0  0  0  0  0  0  0  0
   25.3702   31.0716   40.5541 O   0  0  0  0  0  0  0  0  0  0  0  0
   19.6680   28.5744   40.0032 C   0  0  2  0  0  0  0  0  0  0  0  0
   20.3596   28.0480   41.2143 N   0  0  0  0  0  0  0  0  0  0  0  0
   15.9057   31.9124   35.1210 C   0  0  1  0  0  0  0  0  0  0  0  0
   15.7639   31.8784   33.6514 N   0  0  0  0  0  0  0  0  0  0  0  0
   23.6956   31.2463   42.3627 C   0  0  2  0  0  0  0  0  0  0  0  0
   24.4730   30.3625   43.1766 O   0  0  0  0  0  0  0  0  0  0  0  0
   19.7504   30.1309   40.0142 C   0  0  2  0  0  0  0  0  0  0  0  0
   15.1930   33.1721   35.7071 C   0  0  1  0  0  0  0  0  0  0  0  0
   13.8120   33.1066   35.3667 O   0  0  0  0  0  0  0  0  0  0  0  0
   22.1395   31.0777   42.6391 C   0  0  2  0  0  0  0  0  0  0  0  0
   21.3534   31.9919   41.7810 O   0  0  0  0  0  0  0  0  0  0  0  0
   19.0292   30.6882   38.7569 C   0  0  2  0  0  0  0  0  0  0  0  0
   19.0916   32.1121   38.8075 O   0  0  0  0  0  0  0  0  0  0  0  0
   15.3600   33.1696   37.2606 C   0  0  0  0  0  0  0  0  0  0  0  0
   14.8407   31.9155   37.8570 O   0  0  0  0  0  0  0  0  0  0  0  0
   21.7588   31.3673   44.1194 C   0  0  2  0  0  0  0  0  0  0  0  0
   22.4177   30.4223   44.9696 O   0  0  0  0  0  0  0  0  0  0  0  0
   17.5362   30.2784   38.7198 C   0  0  1  0  0  0  0  0  0  0  0  0
   16.9554   30.8203   37.5017 O   0  0  0  0  0  0  0  0  0  0  0  0
   20.2700   31.2482   44.3602 C   0  0  0  0  0  0  0  0  0  0  0  0
   15.7559   34.4735   35.1341 C   0  0  0  0  0  0  0  0  0  0  0  0
   17.0722   31.4639   33.0882 C   0  0  0  0  0  0  0  0  0  0  0  0
  1  2  1  1  0  0  0
  1  6  1  0  0  0  0
  1 23  1  0  0  0  0
  3  4  1  1  0  0  0
  3  8  1  0  0  0  0
  3 30  1  0  0  0  0
  5  9  1  0  0  0  0
  5 27  1  0  0  0  0
  5 31  1  6  0  0  0
  6  7  1  6  0  0  0
  6 11  1  0  0  0  0
  8 13  1  0  0  0  0
  9 10  1  6  0  0  0
  9 15  1  0  0  0  0
 11 12  1  1  0  0  0
 11 17  1  0  0  0  0
 13 14  1  1  0  0  0
 13 19  1  0  0  0  0
 15 16  1  6  0  0  0
 15 20  1  0  0  0  0
 16 34  1  0  0  0  0
 17 18  1  1  0  0  0
 17 22  1  0  0  0  0
 19  2  1  6  0  0  0
 19 24  1  0  0  0  0
 20 21  1  6  0  0  0
 20 26  1  0  0  0  0
 20 33  1  0  0  0  0
 22 23  1  6  0  0  0
 22 28  1  0  0  0  0
 24 25  1  1  0  0  0
 24 30  1  0  0  0  0
 26 27  1  0  0  0  0
 28 29  1  1  0  0  0
 28 32  1  0  0  0  0
 30 31  1  6  0  0  0
M  END
>  <CHROM.1>
-169.14328655,-164.49532145,-100.95593801,-62.35585446,72.27834804,-150.49651278
19.10428018,30.98922959,39.05486421,-0.66890847,-0.35288930,-1.02026784

>  <Name>
ligand

>  <RI>
0

>  <Rbt.Current_Directory>
/home/itssahil/PROJECTS/Mol_Feturizer/New_Systems/rnas/4p3s

>  <Rbt.Executable>
rbdock ($Id: //depot/dev/client3/rdock/2013.1/src/exe/rbdock.cxx#4 $)

>  <Rbt.Library>
libRbt.so (2013.1, Build901 2013/11/27)

>  <Rbt.Parameter_File>
/export/apps/rDock/src/rDock_2013.1_src/data/scripts/dock_solv.prm

>  <Rbt.Receptor>
prm/pocket_docking_8.prm

>  <SCORE>
-8.4847

>  <SCORE.INTER>
-4.4806

>  <SCORE.INTER.CONST>
1

>  <SCORE.INTER.POLAR>
0

>  <SCORE.INTER.ROT>
6

>  <SCORE.INTER.SOLV>
9.67977

>  <SCORE.INTER.VDW>
-13.8137

>  <SCORE.INTER.norm>
-0.131782

>  <SCORE.INTRA>
-4.00409

>  <SCORE.INTRA.DIHEDRAL>
-8.8856

>  <SCORE.INTRA.DIHEDRAL.0>
15.8194

>  <SCORE.INTRA.POLAR>
0

>  <SCORE.INTRA.POLAR.0>
0

>  <SCORE.INTRA.REPUL>
0

>  <SCORE.INTRA.REPUL.0>
0

>  <SCORE.INTRA.SOLV>
0.284168

>  <SCORE.INTRA.SOLV.lig_0>
-71.9159

>  <SCORE.INTRA.VDW>
0.296622

>  <SCORE.INTRA.VDW.0>
-3.53918

>  <SCORE.INTRA.norm>
-0.117767

>  <SCORE.RESTR>
0

>  <SCORE.RESTR.CAVITY>
0

>  <SCORE.RESTR.norm>
0

>  <SCORE.SYSTEM>
0

>  <SCORE.SYSTEM.CONST>
0

>  <SCORE.SYSTEM.DIHEDRAL>
0

>  <SCORE.SYSTEM.SOLV>
0

>  <SCORE.SYSTEM.norm>
0

>  <SCORE.heavy>
34

>  <SCORE.norm>
-0.24955

>  <RMSD>
8.772

$$$$
ligand
 OpenBabel01301917533D
libRbt.so/2013.1/901 2013/11/27
 34 36  0  0  0  0  0  0  0  0999 V2000
   21.4545   31.5802   37.2021 C   0  0  2  0  0  0  0  0  0  0  0  0
   22.1336   30.3264   37.0794 O   0  0  0  0  0  0  0  0  0  0  0  0
   20.7972   26.2538   36.9078 C   0  0  2  0  0  0  0  0  0  0  0  0
   20.2307   24.9513   37.2837 N   0  0  0  0  0  0  0  0  0  0  0  0
   18.9297   27.3714   34.5494 C   0  0  2  0  0  0  0  0  0  0  0  0
   22.4029   32.7058   36.6415 C   0  0  2  0  0  0  0  0  0  0  0  0
   22.7497   32.4474   35.2347 N   0  0  0  0  0  0  0  0  0  0  0  0
   21.9194   26.6063   37.9496 C   0  0  0  0  0  0  0  0  0  0  0  0
   17.5837   27.0823   33.7748 C   0  0  2  0  0  0  0  0  0  0  0  0
   16.5517   27.9308   34.2477 O   0  0  0  0  0  0  0  0  0  0  0  0
   23.6977   32.7976   37.5041 C   0  0  1  0  0  0  0  0  0  0  0  0
   24.5677   33.8253   36.9950 O   0  0  0  0  0  0  0  0  0  0  0  0
   22.5369   27.9883   37.5361 C   0  0  2  0  0  0  0  0  0  0  0  0
   23.6104   28.3907   38.4891 N   0  0  0  0  0  0  0  0  0  0  0  0
   17.1985   25.5723   34.0066 C   0  0  1  0  0  0  0  0  0  0  0  0
   15.9243   25.2453   33.3355 N   0  0  0  0  0  0  0  0  0  0  0  0
   23.2886   33.0715   38.9703 C   0  0  2  0  0  0  0  0  0  0  0  0
   24.4653   33.1717   39.7785 O   0  0  0  0  0  0  0  0  0  0  0  0
   21.4441   29.0994   37.5119 C   0  0  2  0  0  0  0  0  0  0  0  0
   18.3476   24.6651   33.4636 C   0  0  1  0  0  0  0  0  0  0  0  0
   18.4779   24.8937   32.0642 O   0  0  0  0  0  0  0  0  0  0  0  0
   22.3390   31.8967   39.4643 C   0  0  2  0  0  0  0  0  0  0  0  0
   21.1342   31.8031   38.6100 O   0  0  0  0  0  0  0  0  0  0  0  0
   20.3197   28.6867   36.5235 C   0  0  2  0  0  0  0  0  0  0  0  0
   19.3196   29.7031   36.5438 O   0  0  0  0  0  0  0  0  0  0  0  0
   19.6770   25.0440   34.1919 C   0  0  0  0  0  0  0  0  0  0  0  0
   19.9891   26.4844   34.0301 O   0  0  0  0  0  0  0  0  0  0  0  0
   21.8677   32.0851   40.9349 C   0  0  2  0  0  0  0  0  0  0  0  0
   21.3845   33.4218   41.1078 O   0  0  0  0  0  0  0  0  0  0  0  0
   19.6506   27.3524   36.9363 C   0  0  1  0  0  0  0  0  0  0  0  0
   18.6360   27.0367   35.9436 O   0  0  0  0  0  0  0  0  0  0  0  0
   22.9887   31.8654   41.9267 C   0  0  0  0  0  0  0  0  0  0  0  0
   18.0567   23.1781   33.6707 C   0  0  0  0  0  0  0  0  0  0  0  0
   14.9479   24.8782   34.3903 C   0  0  0  0  0  0  0  0  0  0  0  0
  1  2  1  1  0  0  0
  1  6  1  0  0  0  0
  1 23  1  0  0  0  0
  3  4  1  1  0  0  0
  3  8  1  0  0  0  0
  3 30  1  0  0  0  0
  5  9  1  0  0  0  0
  5 27  1  0  0  0  0
  5 31  1  1  0  0  0
  6  7  1  6  0  0  0
  6 11  1  0  0  0  0
  8 13  1  0  0  0  0
  9 10  1  1  0  0  0
  9 15  1  0  0  0  0
 11 12  1  6  0  0  0
 11 17  1  0  0  0  0
 13 14  1  1  0  0  0
 13 19  1  0  0  0  0
 15 16  1  6  0  0  0
 15 20  1  0  0  0  0
 16 34  1  0  0  0  0
 17 18  1  1  0  0  0
 17 22  1  0  0  0  0
 19  2  1  6  0  0  0
 19 24  1  0  0  0  0
 20 21  1  6  0  0  0
 20 26  1  0  0  0  0
 20 33  1  0  0  0  0
 22 23  1  6  0  0  0
 22 28  1  0  0  0  0
 24 25  1  1  0  0  0
 24 30  1  0  0  0  0
 26 27  1  0  0  0  0
 28 29  1  6  0  0  0
 28 32  1  0  0  0  0
 30 31  1  6  0  0  0
M  END
>  <CHROM.1>
-178.77019973,-168.21171439,-116.37205523,48.44975104,-78.87463681,-172.92960737
20.53775313,28.83173842,36.61412848,0.48302888,-0.95292811,-0.38209916

>  <Name>
ligand

>  <RI>
0

>  <Rbt.Current_Directory>
/home/itssahil/PROJECTS/Mol_Feturizer/New_Systems/rnas/4p3s

>  <Rbt.Executable>
rbdock ($Id: //depot/dev/client3/rdock/2013.1/src/exe/rbdock.cxx#4 $)

>  <Rbt.Library>
libRbt.so (2013.1, Build901 2013/11/27)

>  <Rbt.Parameter_File>
/export/apps/rDock/src/rDock_2013.1_src/data/scripts/dock_solv.prm

>  <Rbt.Receptor>
prm/pocket_docking_3.prm

>  <SCORE>
-11.2053

>  <SCORE.INTER>
-7.3761

>  <SCORE.INTER.CONST>
1

>  <SCORE.INTER.POLAR>
0

>  <SCORE.INTER.ROT>
6

>  <SCORE.INTER.SOLV>
21.9484

>  <SCORE.INTER.VDW>
-19.8335

>  <SCORE.INTER.norm>
-0.216944

>  <SCORE.INTRA>
-3.82923

>  <SCORE.INTRA.DIHEDRAL>
-11.5529

>  <SCORE.INTRA.DIHEDRAL.0>
15.8194

>  <SCORE.INTRA.POLAR>
0

>  <SCORE.INTRA.POLAR.0>
0

>  <SCORE.INTRA.REPUL>
0

>  <SCORE.INTRA.REPUL.0>
0

>  <SCORE.INTRA.SOLV>
0.38675

>  <SCORE.INTRA.SOLV.lig_0>
-71.9159

>  <SCORE.INTRA.VDW>
1.75385

>  <SCORE.INTRA.VDW.0>
-3.53918

>  <SCORE.INTRA.norm>
-0.112624

>  <SCORE.RESTR>
0

>  <SCORE.RESTR.CAVITY>
0

>  <SCORE.RESTR.norm>
0

>  <SCORE.SYSTEM>
0

>  <SCORE.SYSTEM.CONST>
0

>  <SCORE.SYSTEM.DIHEDRAL>
0

>  <SCORE.SYSTEM.SOLV>
0

>  <SCORE.SYSTEM.norm>
0

>  <SCORE.heavy>
34

>  <SCORE.norm>
-0.329569

>  <RMSD>
8.775

$$$$
ligand
 OpenBabel01301917533D
libRbt.so/2013.1/901 2013/11/27
 34 36  0  0  0  0  0  0  0  0999 V2000
   20.4530   35.7445   30.5500 C   0  0  2  0  0  0  0  0  0  0  0  0
   20.2796   35.4442   31.9386 O   0  0  0  0  0  0  0  0  0  0  0  0
   22.1418   32.4827   34.4213 C   0  0  2  0  0  0  0  0  0  0  0  0
   23.1557   31.6628   35.0984 N   0  0  0  0  0  0  0  0  0  0  0  0
   22.4697   35.1624   37.1265 C   0  0  2  0  0  0  0  0  0  0  0  0
   21.4540   36.9550   30.4339 C   0  0  2  0  0  0  0  0  0  0  0  0
   22.7487   36.6266   31.0518 N   0  0  0  0  0  0  0  0  0  0  0  0
   22.4288   32.4206   32.8777 C   0  0  0  0  0  0  0  0  0  0  0  0
   23.7877   34.6112   37.8007 C   0  0  2  0  0  0  0  0  0  0  0  0
   24.7291   34.2385   36.8090 O   0  0  0  0  0  0  0  0  0  0  0  0
   20.8459   38.2226   31.1064 C   0  0  1  0  0  0  0  0  0  0  0  0
   21.7578   39.3317   31.0027 O   0  0  0  0  0  0  0  0  0  0  0  0
   21.3339   33.2807   32.1541 C   0  0  2  0  0  0  0  0  0  0  0  0
   21.5486   33.2721   30.6789 N   0  0  0  0  0  0  0  0  0  0  0  0
   23.4028   33.3647   38.6841 C   0  0  1  0  0  0  0  0  0  0  0  0
   24.6013   32.7775   39.3163 N   0  0  0  0  0  0  0  0  0  0  0  0
   19.4914   38.5328   30.4274 C   0  0  2  0  0  0  0  0  0  0  0  0
   18.9210   39.7024   31.0229 O   0  0  0  0  0  0  0  0  0  0  0  0
   21.3645   34.7555   32.6576 C   0  0  2  0  0  0  0  0  0  0  0  0
   22.3766   33.8107   39.7734 C   0  0  1  0  0  0  0  0  0  0  0  0
   22.9982   34.7853   40.6047 O   0  0  0  0  0  0  0  0  0  0  0  0
   18.5380   37.2714   30.5882 C   0  0  2  0  0  0  0  0  0  0  0  0
   19.1499   36.0712   29.9757 O   0  0  0  0  0  0  0  0  0  0  0  0
   21.1448   34.7738   34.1947 C   0  0  2  0  0  0  0  0  0  0  0  0
   21.2086   36.1293   34.6334 O   0  0  0  0  0  0  0  0  0  0  0  0
   21.1280   34.4302   39.0673 C   0  0  0  0  0  0  0  0  0  0  0  0
   21.5125   35.5538   38.1797 O   0  0  0  0  0  0  0  0  0  0  0  0
   17.1447   37.4852   29.9298 C   0  0  2  0  0  0  0  0  0  0  0  0
   16.3199   36.3440   30.1899 O   0  0  0  0  0  0  0  0  0  0  0  0
   22.2432   33.9792   34.9434 C   0  0  1  0  0  0  0  0  0  0  0  0
   21.9400   34.0305   36.3647 O   0  0  0  0  0  0  0  0  0  0  0  0
   17.2416   37.6550   28.4297 C   0  0  0  0  0  0  0  0  0  0  0  0
   21.9363   32.6474   40.6633 C   0  0  0  0  0  0  0  0  0  0  0  0
   24.4985   31.3038   39.1806 C   0  0  0  0  0  0  0  0  0  0  0  0
  1  2  1  1  0  0  0
  1  6  1  0  0  0  0
  1 23  1  0  0  0  0
  3  4  1  1  0  0  0
  3  8  1  0  0  0  0
  3 30  1  0  0  0  0
  5  9  1  0  0  0  0
  5 27  1  0  0  0  0
  5 31  1  6  0  0  0
  6  7  1  1  0  0  0
  6 11  1  0  0  0  0
  8 13  1  0  0  0  0
  9 10  1  6  0  0  0
  9 15  1  0  0  0  0
 11 12  1  6  0  0  0
 11 17  1  0  0  0  0
 13 14  1  6  0  0  0
 13 19  1  0  0  0  0
 15 16  1  1  0  0  0
 15 20  1  0  0  0  0
 16 34  1  0  0  0  0
 17 18  1  1  0  0  0
 17 22  1  0  0  0  0
 19  2  1  6  0  0  0
 19 24  1  0  0  0  0
 20 21  1  1  0  0  0
 20 26  1  0  0  0  0
 20 33  1  0  0  0  0
 22 23  1  6  0  0  0
 22 28  1  0  0  0  0
 24 25  1  1  0  0  0
 24 30  1  0  0  0  0
 26 27  1  0  0  0  0
 28 29  1  6  0  0  0
 28 32  1  0  0  0  0
 30 31  1  1  0  0  0
M  END
>  <CHROM.1>
-74.51628501,-73.25467217,-136.32973654,-176.38244177,156.60492322,-97.61975407
21.34348520,35.17275396,34.18533861,-2.42925879,-1.02836316,1.21397892

>  <Name>
ligand

>  <RI>
0

>  <Rbt.Current_Directory>
/home/itssahil/PROJECTS/Mol_Feturizer/New_Systems/rnas/4p3s

>  <Rbt.Executable>
rbdock ($Id: //depot/dev/client3/rdock/2013.1/src/exe/rbdock.cxx#4 $)

>  <Rbt.Library>
libRbt.so (2013.1, Build901 2013/11/27)

>  <Rbt.Parameter_File>
/export/apps/rDock/src/rDock_2013.1_src/data/scripts/dock_solv.prm

>  <Rbt.Receptor>
prm/blind_docking_60.prm

>  <SCORE>
4.87944

>  <SCORE.INTER>
-1.23319

>  <SCORE.INTER.CONST>
1

>  <SCORE.INTER.POLAR>
0

>  <SCORE.INTER.ROT>
6

>  <SCORE.INTER.SOLV>
19.2584

>  <SCORE.INTER.VDW>
-14.8416

>  <SCORE.INTER.norm>
-0.0362703

>  <SCORE.INTRA>
0.769173

>  <SCORE.INTRA.DIHEDRAL>
-5.53418

>  <SCORE.INTRA.DIHEDRAL.0>
15.8194

>  <SCORE.INTRA.POLAR>
0

>  <SCORE.INTRA.POLAR.0>
0

>  <SCORE.INTRA.REPUL>
0

>  <SCORE.INTRA.REPUL.0>
0

>  <SCORE.INTRA.SOLV>
3.44061

>  <SCORE.INTRA.SOLV.lig_0>
-71.9159

>  <SCORE.INTRA.VDW>
1.81596

>  <SCORE.INTRA.VDW.0>
-3.53918

>  <SCORE.INTRA.norm>
0.0226227

>  <SCORE.RESTR>
5.34346

>  <SCORE.RESTR.CAVITY>
5.34346

>  <SCORE.RESTR.norm>
0.15716

>  <SCORE.SYSTEM>
0

>  <SCORE.SYSTEM.CONST>
0

>  <SCORE.SYSTEM.DIHEDRAL>
0

>  <SCORE.SYSTEM.SOLV>
0

>  <SCORE.SYSTEM.norm>
0

>  <SCORE.heavy>
34

>  <SCORE.norm>
0.143513

>  <RMSD>
8.776

$$$$
ligand
 OpenBabel01301917533D
libRbt.so/2013.1/901 2013/11/27
 34 36  0  0  0  0  0  0  0  0999 V2000
   20.4743   21.0434   32.0109 C   0  0  2  0  0  0  0  0  0  0  0  0
   19.0914   21.2547   31.7090 O   0  0  0  0  0  0  0  0  0  0  0  0
   18.6317   25.5086   32.0176 C   0  0  2  0  0  0  0  0  0  0  0  0
   18.3232   26.9084   31.6953 N   0  0  0  0  0  0  0  0  0  0  0  0
   16.6763   24.6809   34.4660 C   0  0  2  0  0  0  0  0  0  0  0  0
   20.7475   19.4924   31.9869 C   0  0  2  0  0  0  0  0  0  0  0  0
   20.4182   18.9217   30.6709 N   0  0  0  0  0  0  0  0  0  0  0  0
   19.5937   24.9614   30.9022 C   0  0  0  0  0  0  0  0  0  0  0  0
   15.5296   25.3226   35.3427 C   0  0  2  0  0  0  0  0  0  0  0  0
   14.2627   24.8495   34.9188 O   0  0  0  0  0  0  0  0  0  0  0  0
   19.9197   18.7828   33.1006 C   0  0  1  0  0  0  0  0  0  0  0  0
   20.1663   17.3646   33.0821 O   0  0  0  0  0  0  0  0  0  0  0  0
   19.9380   23.4724   31.2578 C   0  0  2  0  0  0  0  0  0  0  0  0
   20.8473   22.8840   30.2334 N   0  0  0  0  0  0  0  0  0  0  0  0
   15.6087   26.8882   35.1848 C   0  0  1  0  0  0  0  0  0  0  0  0
   14.5357   27.5495   35.9544 N   0  0  0  0  0  0  0  0  0  0  0  0
   20.2973   19.4095   34.4632 C   0  0  2  0  0  0  0  0  0  0  0  0
   19.5561   18.7627   35.5025 O   0  0  0  0  0  0  0  0  0  0  0  0
   18.6438   22.6073   31.3370 C   0  0  2  0  0  0  0  0  0  0  0  0
   17.0089   27.3784   35.6722 C   0  0  1  0  0  0  0  0  0  0  0  0
   17.1452   27.0508   37.0511 O   0  0  0  0  0  0  0  0  0  0  0  0
   19.9920   20.9684   34.4113 C   0  0  2  0  0  0  0  0  0  0  0  0
   20.7594   21.6162   33.3243 O   0  0  0  0  0  0  0  0  0  0  0  0
   17.6889   23.2152   32.4000 C   0  0  2  0  0  0  0  0  0  0  0  0
   16.5021   22.4251   32.4302 O   0  0  0  0  0  0  0  0  0  0  0  0
   18.1152   26.6539   34.8400 C   0  0  0  0  0  0  0  0  0  0  0  0
   17.9837   25.1802   34.9354 O   0  0  0  0  0  0  0  0  0  0  0  0
   20.3450   21.6930   35.7420 C   0  0  2  0  0  0  0  0  0  0  0  0
   19.9495   20.8713   36.8458 O   0  0  0  0  0  0  0  0  0  0  0  0
   17.2845   24.6681   32.0478 C   0  0  1  0  0  0  0  0  0  0  0  0
   16.4172   25.1586   33.1070 O   0  0  0  0  0  0  0  0  0  0  0  0
   19.6340   23.0217   35.8750 C   0  0  0  0  0  0  0  0  0  0  0  0
   17.1722   28.8925   35.5315 C   0  0  0  0  0  0  0  0  0  0  0  0
   14.9030   28.9805   36.0895 C   0  0  0  0  0  0  0  0  0  0  0  0
  1  2  1  1  0  0  0
  1  6  1  0  0  0  0
  1 23  1  0  0  0  0
  3  4  1  6  0  0  0
  3  8  1  0  0  0  0
  3 30  1  0  0  0  0
  5  9  1  0  0  0  0
  5 27  1  0  0  0  0
  5 31  1  6  0  0  0
  6  7  1  6  0  0  0
  6 11  1  0  0  0  0
  8 13  1  0  0  0  0
  9 10  1  6  0  0  0
  9 15  1  0  0  0  0
 11 12  1  1  0  0  0
 11 17  1  0  0  0  0
 13 14  1  6  0  0  0
 13 19  1  0  0  0  0
 15 16  1  1  0  0  0
 15 20  1  0  0  0  0
 16 34  1  0  0  0  0
 17 18  1  1  0  0  0
 17 22  1  0  0  0  0
 19  2  1  1  0  0  0
 19 24  1  0  0  0  0
 20 21  1  1  0  0  0
 20 26  1  0  0  0  0
 20 33  1  0  0  0  0
 22 23  1  6  0  0  0
 22 28  1  0  0  0  0
 24 25  1  6  0  0  0
 24 30  1  0  0  0  0
 26 27  1  0  0  0  0
 28 29  1  1  0  0  0
 28 32  1  0  0  0  0
 30 31  1  1  0  0  0
M  END
>  <CHROM.1>
-164.88307016,4.96020665,163.57647102,-40.56088315,-81.93701010,-176.81586204
18.33923369,23.46983723,33.75188434,-0.17886234,1.07891060,-1.06562000

>  <Name>
ligand

>  <RI>
0

>  <Rbt.Current_Directory>
/home/itssahil/PROJECTS/Mol_Feturizer/New_Systems/rnas/4p3s

>  <Rbt.Executable>
rbdock ($Id: //depot/dev/client3/rdock/2013.1/src/exe/rbdock.cxx#4 $)

>  <Rbt.Library>
libRbt.so (2013.1, Build901 2013/11/27)

>  <Rbt.Parameter_File>
/export/apps/rDock/src/rDock_2013.1_src/data/scripts/dock_solv.prm

>  <Rbt.Receptor>
prm/blind_docking_60.prm

>  <SCORE>
37.2894

>  <SCORE.INTER>
6.62139

>  <SCORE.INTER.CONST>
1

>  <SCORE.INTER.POLAR>
0

>  <SCORE.INTER.ROT>
6

>  <SCORE.INTER.SOLV>
29.1375

>  <SCORE.INTER.VDW>
-12.8982

>  <SCORE.INTER.norm>
0.194747

>  <SCORE.INTRA>
23.8234

>  <SCORE.INTRA.DIHEDRAL>
-3.91796

>  <SCORE.INTRA.DIHEDRAL.0>
15.8194

>  <SCORE.INTRA.POLAR>
0

>  <SCORE.INTRA.POLAR.0>
0

>  <SCORE.INTRA.REPUL>
0

>  <SCORE.INTRA.REPUL.0>
0

>  <SCORE.INTRA.SOLV>
2.40807

>  <SCORE.INTRA.SOLV.lig_0>
-71.9159

>  <SCORE.INTRA.VDW>
24.5783

>  <SCORE.INTRA.VDW.0>
-3.53918

>  <SCORE.INTRA.norm>
0.700687

>  <SCORE.RESTR>
6.8446

>  <SCORE.RESTR.CAVITY>
6.8446

>  <SCORE.RESTR.norm>
0.201312

>  <SCORE.SYSTEM>
0

>  <SCORE.SYSTEM.CONST>
0

>  <SCORE.SYSTEM.DIHEDRAL>
0

>  <SCORE.SYSTEM.SOLV>
0

>  <SCORE.SYSTEM.norm>
0

>  <SCORE.heavy>
34

>  <SCORE.norm>
1.09675

>  <RMSD>
8.785

$$$$
ligand
 OpenBabel01301917533D
libRbt.so/2013.1/901 2013/11/27
 34 36  0  0  0  0  0  0  0  0999 V2000
   21.4936   20.3860   32.7396 C   0  0  2  0  0  0  0  0  0  0  0  0
   20.2165   20.2986   32.0997 O   0  0  0  0  0  0  0  0  0  0  0  0
   19.7258   24.4970   31.3681 C   0  0  2  0  0  0  0  0  0  0  0  0
   19.2608   25.7736   30.8091 N   0  0  0  0  0  0  0  0  0  0  0  0
   17.8307   26.0187   32.9922 C   0  0  2  0  0  0  0  0  0  0  0  0
   21.9290   18.9321   33.1605 C   0  0  2  0  0  0  0  0  0  0  0  0
   22.0042   18.0464   31.9874 N   0  0  0  0  0  0  0  0  0  0  0  0
   20.2256   23.6056   30.1744 C   0  0  0  0  0  0  0  0  0  0  0  0
   18.5536   26.7805   34.1723 C   0  0  2  0  0  0  0  0  0  0  0  0
   19.9513   26.5513   34.1230 O   0  0  0  0  0  0  0  0  0  0  0  0
   20.9292   18.3522   34.2060 C   0  0  1  0  0  0  0  0  0  0  0  0
   21.3234   17.0230   34.5934 O   0  0  0  0  0  0  0  0  0  0  0  0
   20.7399   22.2500   30.7744 C   0  0  2  0  0  0  0  0  0  0  0  0
   21.2265   21.3472   29.6924 N   0  0  0  0  0  0  0  0  0  0  0  0
   17.9613   26.2523   35.5333 C   0  0  1  0  0  0  0  0  0  0  0  0
   18.6235   26.9015   36.6826 N   0  0  0  0  0  0  0  0  0  0  0  0
   20.8829   19.3097   35.4197 C   0  0  2  0  0  0  0  0  0  0  0  0
   19.9783   18.7886   36.3986 O   0  0  0  0  0  0  0  0  0  0  0  0
   19.6060   21.5256   31.5610 C   0  0  2  0  0  0  0  0  0  0  0  0
   16.4252   26.5317   35.5619 C   0  0  1  0  0  0  0  0  0  0  0  0
   16.2226   27.9393   35.4912 O   0  0  0  0  0  0  0  0  0  0  0  0
   20.4347   20.7497   34.9183 C   0  0  2  0  0  0  0  0  0  0  0  0
   21.3763   21.2660   33.9000 O   0  0  0  0  0  0  0  0  0  0  0  0
   19.0907   22.4605   32.6888 C   0  0  2  0  0  0  0  0  0  0  0  0
   18.0349   21.7877   33.3716 O   0  0  0  0  0  0  0  0  0  0  0  0
   15.7623   25.8349   34.3304 C   0  0  0  0  0  0  0  0  0  0  0  0
   16.3802   26.2836   33.0596 O   0  0  0  0  0  0  0  0  0  0  0  0
   20.3622   21.7906   36.0723 C   0  0  2  0  0  0  0  0  0  0  0  0
   19.7005   21.2021   37.1975 O   0  0  0  0  0  0  0  0  0  0  0  0
   18.5234   23.7863   32.1240 C   0  0  1  0  0  0  0  0  0  0  0  0
   18.0928   24.6017   33.2484 O   0  0  0  0  0  0  0  0  0  0  0  0
   19.5899   23.0297   35.6763 C   0  0  0  0  0  0  0  0  0  0  0  0
   15.7701   26.0277   36.8487 C   0  0  0  0  0  0  0  0  0  0  0  0
   19.9086   26.1964   36.9114 C   0  0  0  0  0  0  0  0  0  0  0  0
  1  2  1  1  0  0  0
  1  6  1  0  0  0  0
  1 23  1  0  0  0  0
  3  4  1  6  0  0  0
  3  8  1  0  0  0  0
  3 30  1  0  0  0  0
  5  9  1  0  0  0  0
  5 27  1  0  0  0  0
  5 31  1  1  0  0  0
  6  7  1  6  0  0  0
  6 11  1  0  0  0  0
  8 13  1  0  0  0  0
  9 10  1  1  0  0  0
  9 15  1  0  0  0  0
 11 12  1  1  0  0  0
 11 17  1  0  0  0  0
 13 14  1  6  0  0  0
 13 19  1  0  0  0  0
 15 16  1  1  0  0  0
 15 20  1  0  0  0  0
 16 34  1  0  0  0  0
 17 18  1  1  0  0  0
 17 22  1  0  0  0  0
 19  2  1  1  0  0  0
 19 24  1  0  0  0  0
 20 21  1  6  0  0  0
 20 26  1  0  0  0  0
 20 33  1  0  0  0  0
 22 23  1  6  0  0  0
 22 28  1  0  0  0  0
 24 25  1  6  0  0  0
 24 30  1  0  0  0  0
 26 27  1  0  0  0  0
 28 29  1  1  0  0  0
 28 32  1  0  0  0  0
 30 31  1  1  0  0  0
M  END
>  <CHROM.1>
-177.66252814,46.31826193,-80.97382699,-44.92047455,49.83214608,-133.91800956
19.33909788,23.00321436,33.86340004,-0.17171572,1.10422488,-1.19756856

>  <Name>
ligand

>  <RI>
0

>  <Rbt.Current_Directory>
/home/itssahil/PROJECTS/Mol_Feturizer/New_Systems/rnas/4p3s

>  <Rbt.Executable>
rbdock ($Id: //depot/dev/client3/rdock/2013.1/src/exe/rbdock.cxx#4 $)

>  <Rbt.Library>
libRbt.so (2013.1, Build901 2013/11/27)

>  <Rbt.Parameter_File>
/export/apps/rDock/src/rDock_2013.1_src/data/scripts/dock_solv.prm

>  <Rbt.Receptor>
prm/blind_docking_60.prm

>  <SCORE>
27.8858

>  <SCORE.INTER>
17.9336

>  <SCORE.INTER.CONST>
1

>  <SCORE.INTER.POLAR>
0

>  <SCORE.INTER.ROT>
6

>  <SCORE.INTER.SOLV>
26.51

>  <SCORE.INTER.VDW>
-4.48095

>  <SCORE.INTER.norm>
0.527457

>  <SCORE.INTRA>
1.23239

>  <SCORE.INTRA.DIHEDRAL>
-6.9151

>  <SCORE.INTRA.DIHEDRAL.0>
15.8194

>  <SCORE.INTRA.POLAR>
0

>  <SCORE.INTRA.POLAR.0>
0

>  <SCORE.INTRA.REPUL>
0

>  <SCORE.INTRA.REPUL.0>
0

>  <SCORE.INTRA.SOLV>
2.38365

>  <SCORE.INTRA.SOLV.lig_0>
-71.9159

>  <SCORE.INTRA.VDW>
3.49811

>  <SCORE.INTRA.VDW.0>
-3.53918

>  <SCORE.INTRA.norm>
0.0362466

>  <SCORE.RESTR>
8.71988

>  <SCORE.RESTR.CAVITY>
8.71988

>  <SCORE.RESTR.norm>
0.256467

>  <SCORE.SYSTEM>
0

>  <SCORE.SYSTEM.CONST>
0

>  <SCORE.SYSTEM.DIHEDRAL>
0

>  <SCORE.SYSTEM.SOLV>
0

>  <SCORE.SYSTEM.norm>
0

>  <SCORE.heavy>
34

>  <SCORE.norm>
0.820171

>  <RMSD>
8.791

$$$$
ligand
 OpenBabel01301917533D
libRbt.so/2013.1/901 2013/11/27
 34 36  0  0  0  0  0  0  0  0999 V2000
   21.3456   31.6602   40.8133 C   0  0  2  0  0  0  0  0  0  0  0  0
   21.0001   30.2997   40.5340 O   0  0  0  0  0  0  0  0  0  0  0  0
   17.5888   28.4091   38.7479 C   0  0  2  0  0  0  0  0  0  0  0  0
   16.2229   27.9193   38.5175 N   0  0  0  0  0  0  0  0  0  0  0  0
   15.8045   30.2496   36.9935 C   0  0  2  0  0  0  0  0  0  0  0  0
   22.9026   31.7317   41.0397 C   0  0  2  0  0  0  0  0  0  0  0  0
   23.6282   31.2531   39.8521 N   0  0  0  0  0  0  0  0  0  0  0  0
   18.0525   27.8890   40.1564 C   0  0  0  0  0  0  0  0  0  0  0  0
   15.8089   30.4396   35.4253 C   0  0  2  0  0  0  0  0  0  0  0  0
   16.6292   29.4594   34.8131 O   0  0  0  0  0  0  0  0  0  0  0  0
   23.3042   30.8894   42.2880 C   0  0  1  0  0  0  0  0  0  0  0  0
   24.7269   30.9518   42.4986 O   0  0  0  0  0  0  0  0  0  0  0  0
   19.5183   28.3964   40.3931 C   0  0  2  0  0  0  0  0  0  0  0  0
   20.0237   27.9430   41.7203 N   0  0  0  0  0  0  0  0  0  0  0  0
   16.3532   31.8835   35.1072 C   0  0  1  0  0  0  0  0  0  0  0  0
   16.4170   32.1125   33.6497 N   0  0  0  0  0  0  0  0  0  0  0  0
   22.5229   31.4258   43.5103 C   0  0  2  0  0  0  0  0  0  0  0  0
   22.8868   30.6727   44.6715 O   0  0  0  0  0  0  0  0  0  0  0  0
   19.5829   29.9526   40.3358 C   0  0  2  0  0  0  0  0  0  0  0  0
   15.4215   32.9386   35.7832 C   0  0  1  0  0  0  0  0  0  0  0  0
   14.1173   32.8091   35.2267 O   0  0  0  0  0  0  0  0  0  0  0  0
   20.9660   31.3188   43.2090 C   0  0  2  0  0  0  0  0  0  0  0  0
   20.6122   32.0951   41.9997 O   0  0  0  0  0  0  0  0  0  0  0  0
   19.0550   30.4341   38.9571 C   0  0  2  0  0  0  0  0  0  0  0  0
   19.0952   31.8596   38.9427 O   0  0  0  0  0  0  0  0  0  0  0  0
   15.3754   32.6605   37.3201 C   0  0  0  0  0  0  0  0  0  0  0  0
   14.9346   31.2738   37.6043 O   0  0  0  0  0  0  0  0  0  0  0  0
   20.0908   31.8413   44.3843 C   0  0  2  0  0  0  0  0  0  0  0  0
   20.3084   31.0193   45.5363 O   0  0  0  0  0  0  0  0  0  0  0  0
   17.5889   29.9969   38.7166 C   0  0  1  0  0  0  0  0  0  0  0  0
   17.1940   30.4674   37.3985 O   0  0  0  0  0  0  0  0  0  0  0  0
   18.6140   31.8014   44.0586 C   0  0  0  0  0  0  0  0  0  0  0  0
   15.8964   34.3712   35.5366 C   0  0  0  0  0  0  0  0  0  0  0  0
   17.8169   31.8703   33.2226 C   0  0  0  0  0  0  0  0  0  0  0  0
  1  2  1  1  0  0  0
  1  6  1  0  0  0  0
  1 23  1  0  0  0  0
  3  4  1  1  0  0  0
  3  8  1  0  0  0  0
  3 30  1  0  0  0  0
  5  9  1  0  0  0  0
  5 27  1  0  0  0  0
  5 31  1  1  0  0  0
  6  7  1  6  0  0  0
  6 11  1  0  0  0  0
  8 13  1  0  0  0  0
  9 10  1  6  0  0  0
  9 15  1  0  0  0  0
 11 12  1  1  0  0  0
 11 17  1  0  0  0  0
 13 14  1  1  0  0  0
 13 19  1  0  0  0  0
 15 16  1  6  0  0  0
 15 20  1  0  0  0  0
 16 34  1  0  0  0  0
 17 18  1  1  0  0  0
 17 22  1  0  0  0  0
 19  2  1  6  0  0  0
 19 24  1  0  0  0  0
 20 21  1  6  0  0  0
 20 26  1  0  0  0  0
 20 33  1  0  0  0  0
 22 23  1  6  0  0  0
 22 28  1  0  0  0  0
 24 25  1  1  0  0  0
 24 30  1  0  0  0  0
 26 27  1  0  0  0  0
 28 29  1  1  0  0  0
 28 32  1  0  0  0  0
 30 31  1  6  0  0  0
M  END
>  <CHROM.1>
177.57050052,-166.97587405,-98.23990981,-63.43319718,68.88340086,-162.98561324
18.86459173,30.91005632,39.38953476,-0.81810881,-0.42834888,-1.11681061

>  <Name>
ligand

>  <RI>
0

>  <Rbt.Current_Directory>
/home/itssahil/PROJECTS/Mol_Feturizer/New_Systems/rnas/4p3s

>  <Rbt.Executable>
rbdock ($Id: //depot/dev/client3/rdock/2013.1/src/exe/rbdock.cxx#4 $)

>  <Rbt.Library>
libRbt.so (2013.1, Build901 2013/11/27)

>  <Rbt.Parameter_File>
/export/apps/rDock/src/rDock_2013.1_src/data/scripts/dock_solv.prm

>  <Rbt.Receptor>
prm/pocket_docking_7.prm

>  <SCORE>
-8.75734

>  <SCORE.INTER>
-3.04636

>  <SCORE.INTER.CONST>
1

>  <SCORE.INTER.POLAR>
0

>  <SCORE.INTER.ROT>
6

>  <SCORE.INTER.SOLV>
8.2695

>  <SCORE.INTER.VDW>
-12.3874

>  <SCORE.INTER.norm>
-0.0895989

>  <SCORE.INTRA>
-5.71098

>  <SCORE.INTRA.DIHEDRAL>
-12.2771

>  <SCORE.INTRA.DIHEDRAL.0>
15.8194

>  <SCORE.INTRA.POLAR>
0

>  <SCORE.INTRA.POLAR.0>
0

>  <SCORE.INTRA.REPUL>
0

>  <SCORE.INTRA.REPUL.0>
0

>  <SCORE.INTRA.SOLV>
-0.175297

>  <SCORE.INTRA.SOLV.lig_0>
-71.9159

>  <SCORE.INTRA.VDW>
0.515241

>  <SCORE.INTRA.VDW.0>
-3.53918

>  <SCORE.INTRA.norm>
-0.16797

>  <SCORE.RESTR>
0

>  <SCORE.RESTR.CAVITY>
0

>  <SCORE.RESTR.norm>
0

>  <SCORE.SYSTEM>
0

>  <SCORE.SYSTEM.CONST>
0

>  <SCORE.SYSTEM.DIHEDRAL>
0

>  <SCORE.SYSTEM.SOLV>
0

>  <SCORE.SYSTEM.norm>
0

>  <SCORE.heavy>
34

>  <SCORE.norm>
-0.257569

>  <RMSD>
8.792

$$$$
ligand
 OpenBabel01301917533D
libRbt.so/2013.1/901 2013/11/27
 34 36  0  0  0  0  0  0  0  0999 V2000
   22.1738   27.5790   37.6104 C   0  0  2  0  0  0  0  0  0  0  0  0
   21.0171   27.8801   38.3976 O   0  0  0  0  0  0  0  0  0  0  0  0
   16.8318   27.7504   37.4659 C   0  0  2  0  0  0  0  0  0  0  0  0
   15.5102   28.0866   36.9190 N   0  0  0  0  0  0  0  0  0  0  0  0
   16.5009   26.3846   34.3997 C   0  0  2  0  0  0  0  0  0  0  0  0
   23.3727   27.2980   38.5924 C   0  0  2  0  0  0  0  0  0  0  0  0
   23.0613   26.1770   39.4936 N   0  0  0  0  0  0  0  0  0  0  0  0
   17.3648   29.0108   38.2383 C   0  0  0  0  0  0  0  0  0  0  0  0
   16.1371   24.9251   33.9169 C   0  0  2  0  0  0  0  0  0  0  0  0
   15.3757   24.2548   34.9065 O   0  0  0  0  0  0  0  0  0  0  0  0
   23.7004   28.5764   39.4214 C   0  0  1  0  0  0  0  0  0  0  0  0
   24.7958   28.3240   40.3206 O   0  0  0  0  0  0  0  0  0  0  0  0
   18.7676   28.6442   38.8383 C   0  0  2  0  0  0  0  0  0  0  0  0
   19.3393   29.8017   39.5838 N   0  0  0  0  0  0  0  0  0  0  0  0
   17.4808   24.1494   33.6433 C   0  0  1  0  0  0  0  0  0  0  0  0
   17.2100   22.7603   33.2216 N   0  0  0  0  0  0  0  0  0  0  0  0
   24.0232   29.7259   38.4382 C   0  0  2  0  0  0  0  0  0  0  0  0
   24.3393   30.9079   39.1803 O   0  0  0  0  0  0  0  0  0  0  0  0
   19.7624   28.2315   37.7116 C   0  0  2  0  0  0  0  0  0  0  0  0
   18.2886   24.9046   32.5408 C   0  0  1  0  0  0  0  0  0  0  0  0
   17.5158   24.9157   31.3450 O   0  0  0  0  0  0  0  0  0  0  0  0
   22.7705   29.9514   37.4862 C   0  0  2  0  0  0  0  0  0  0  0  0
   22.4538   28.7157   36.7362 O   0  0  0  0  0  0  0  0  0  0  0  0
   19.1732   27.0277   36.9274 C   0  0  2  0  0  0  0  0  0  0  0  0
   20.0862   26.6908   35.8849 O   0  0  0  0  0  0  0  0  0  0  0  0
   18.5502   26.3686   33.0202 C   0  0  0  0  0  0  0  0  0  0  0  0
   17.2821   27.0637   33.3475 O   0  0  0  0  0  0  0  0  0  0  0  0
   23.0008   31.0911   36.4526 C   0  0  2  0  0  0  0  0  0  0  0  0
   23.3355   32.2976   37.1473 O   0  0  0  0  0  0  0  0  0  0  0  0
   17.8127   27.3756   36.2744 C   0  0  1  0  0  0  0  0  0  0  0  0
   17.3300   26.1870   35.5895 O   0  0  0  0  0  0  0  0  0  0  0  0
   21.7685   31.3632   35.6183 C   0  0  0  0  0  0  0  0  0  0  0  0
   19.6217   24.2219   32.2314 C   0  0  0  0  0  0  0  0  0  0  0  0
   17.9549   21.8639   34.1395 C   0  0  0  0  0  0  0  0  0  0  0  0
  1  2  1  1  0  0  0
  1  6  1  0  0  0  0
  1 23  1  0  0  0  0
  3  4  1  6  0  0  0
  3  8  1  0  0  0  0
  3 30  1  0  0  0  0
  5  9  1  0  0  0  0
  5 27  1  0  0  0  0
  5 31  1  1  0  0  0
  6  7  1  1  0  0  0
  6 11  1  0  0  0  0
  8 13  1  0  0  0  0
  9 10  1  1  0  0  0
  9 15  1  0  0  0  0
 11 12  1  1  0  0  0
 11 17  1  0  0  0  0
 13 14  1  6  0  0  0
 13 19  1  0  0  0  0
 15 16  1  6  0  0  0
 15 20  1  0  0  0  0
 16 34  1  0  0  0  0
 17 18  1  1  0  0  0
 17 22  1  0  0  0  0
 19  2  1  1  0  0  0
 19 24  1  0  0  0  0
 20 21  1  6  0  0  0
 20 26  1  0  0  0  0
 20 33  1  0  0  0  0
 22 23  1  6  0  0  0
 22 28  1  0  0  0  0
 24 25  1  6  0  0  0
 24 30  1  0  0  0  0
 26 27  1  0  0  0  0
 28 29  1  1  0  0  0
 28 32  1  0  0  0  0
 30 31  1  1  0  0  0
M  END
>  <CHROM.1>
177.78122250,-174.05837645,-125.01695113,-56.39844211,94.87519048,-179.35418793
19.83470242,27.37143415,36.30617353,-0.85497634,0.03450415,-2.39571681

>  <Name>
ligand

>  <RI>
0

>  <Rbt.Current_Directory>
/home/itssahil/PROJECTS/Mol_Feturizer/New_Systems/rnas/4p3s

>  <Rbt.Executable>
rbdock ($Id: //depot/dev/client3/rdock/2013.1/src/exe/rbdock.cxx#4 $)

>  <Rbt.Library>
libRbt.so (2013.1, Build901 2013/11/27)

>  <Rbt.Parameter_File>
/export/apps/rDock/src/rDock_2013.1_src/data/scripts/dock_solv.prm

>  <Rbt.Receptor>
prm/pocket_docking_5.prm

>  <SCORE>
-14.9083

>  <SCORE.INTER>
-9.32812

>  <SCORE.INTER.CONST>
1

>  <SCORE.INTER.POLAR>
0

>  <SCORE.INTER.ROT>
6

>  <SCORE.INTER.SOLV>
14.5564

>  <SCORE.INTER.VDW>
-18.6709

>  <SCORE.INTER.norm>
-0.274357

>  <SCORE.INTRA>
-5.58016

>  <SCORE.INTRA.DIHEDRAL>
-9.84641

>  <SCORE.INTRA.DIHEDRAL.0>
15.8194

>  <SCORE.INTRA.POLAR>
0

>  <SCORE.INTRA.POLAR.0>
0

>  <SCORE.INTRA.REPUL>
0

>  <SCORE.INTRA.REPUL.0>
0

>  <SCORE.INTRA.SOLV>
-1.19864

>  <SCORE.INTRA.SOLV.lig_0>
-71.9159

>  <SCORE.INTRA.VDW>
-0.0576312

>  <SCORE.INTRA.VDW.0>
-3.53918

>  <SCORE.INTRA.norm>
-0.164122

>  <SCORE.RESTR>
0

>  <SCORE.RESTR.CAVITY>
0

>  <SCORE.RESTR.norm>
0

>  <SCORE.SYSTEM>
0

>  <SCORE.SYSTEM.CONST>
0

>  <SCORE.SYSTEM.DIHEDRAL>
0

>  <SCORE.SYSTEM.SOLV>
0

>  <SCORE.SYSTEM.norm>
0

>  <SCORE.heavy>
34

>  <SCORE.norm>
-0.438479

>  <RMSD>
8.798

$$$$
ligand
 OpenBabel01301917533D
libRbt.so/2013.1/901 2013/11/27
 34 36  0  0  0  0  0  0  0  0999 V2000
   20.5275   31.8584   34.4407 C   0  0  2  0  0  0  0  0  0  0  0  0
   21.2492   30.7113   34.9007 O   0  0  0  0  0  0  0  0  0  0  0  0
   20.5448   26.7292   36.3320 C   0  0  2  0  0  0  0  0  0  0  0  0
   19.9259   25.5669   36.9837 N   0  0  0  0  0  0  0  0  0  0  0  0
   18.7437   26.3756   32.9328 C   0  0  2  0  0  0  0  0  0  0  0  0
   21.4933   32.7119   33.5356 C   0  0  2  0  0  0  0  0  0  0  0  0
   21.9781   31.9206   32.3933 N   0  0  0  0  0  0  0  0  0  0  0  0
   20.6518   27.8764   37.4005 C   0  0  0  0  0  0  0  0  0  0  0  0
   17.2689   26.4632   33.4919 C   0  0  2  0  0  0  0  0  0  0  0  0
   17.1428   27.5623   34.3777 O   0  0  0  0  0  0  0  0  0  0  0  0
   22.6982   33.2329   34.3758 C   0  0  1  0  0  0  0  0  0  0  0  0
   23.5838   34.0136   33.5521 O   0  0  0  0  0  0  0  0  0  0  0  0
   21.3305   29.1105   36.7088 C   0  0  2  0  0  0  0  0  0  0  0  0
   21.4597   30.2451   37.6672 N   0  0  0  0  0  0  0  0  0  0  0  0
   16.9480   25.1163   34.2437 C   0  0  1  0  0  0  0  0  0  0  0  0
   15.5904   25.1481   34.8240 N   0  0  0  0  0  0  0  0  0  0  0  0
   22.1454   34.0588   35.5609 C   0  0  2  0  0  0  0  0  0  0  0  0
   23.2377   34.5575   36.3396 O   0  0  0  0  0  0  0  0  0  0  0  0
   20.4986   29.5841   35.4788 C   0  0  2  0  0  0  0  0  0  0  0  0
   17.0822   23.9286   33.2389 C   0  0  1  0  0  0  0  0  0  0  0  0
   16.1273   24.1097   32.1983 O   0  0  0  0  0  0  0  0  0  0  0  0
   21.1860   33.1331   36.4261 C   0  0  2  0  0  0  0  0  0  0  0  0
   20.0700   32.6197   35.6008 O   0  0  0  0  0  0  0  0  0  0  0  0
   20.3561   28.4069   34.4761 C   0  0  2  0  0  0  0  0  0  0  0  0
   19.5660   28.8565   33.3773 O   0  0  0  0  0  0  0  0  0  0  0  0
   18.5268   23.9318   32.6434 C   0  0  0  0  0  0  0  0  0  0  0  0
   18.8443   25.2318   32.0052 O   0  0  0  0  0  0  0  0  0  0  0  0
   20.5733   33.8792   37.6460 C   0  0  2  0  0  0  0  0  0  0  0  0
   20.1341   35.1779   37.2328 O   0  0  0  0  0  0  0  0  0  0  0  0
   19.6381   27.1914   35.1127 C   0  0  1  0  0  0  0  0  0  0  0  0
   19.5755   26.1370   34.1132 O   0  0  0  0  0  0  0  0  0  0  0  0
   21.5745   34.0627   38.7652 C   0  0  0  0  0  0  0  0  0  0  0  0
   16.8045   22.5779   33.9003 C   0  0  0  0  0  0  0  0  0  0  0  0
   15.6667   25.9156   36.0913 C   0  0  0  0  0  0  0  0  0  0  0  0
  1  2  1  1  0  0  0
  1  6  1  0  0  0  0
  1 23  1  0  0  0  0
  3  4  1  1  0  0  0
  3  8  1  0  0  0  0
  3 30  1  0  0  0  0
  5  9  1  0  0  0  0
  5 27  1  0  0  0  0
  5 31  1  1  0  0  0
  6  7  1  6  0  0  0
  6 11  1  0  0  0  0
  8 13  1  0  0  0  0
  9 10  1  1  0  0  0
  9 15  1  0  0  0  0
 11 12  1  6  0  0  0
 11 17  1  0  0  0  0
 13 14  1  1  0  0  0
 13 19  1  0  0  0  0
 15 16  1  6  0  0  0
 15 20  1  0  0  0  0
 16 34  1  0  0  0  0
 17 18  1  1  0  0  0
 17 22  1  0  0  0  0
 19  2  1  6  0  0  0
 19 24  1  0  0  0  0
 20 21  1  6  0  0  0
 20 26  1  0  0  0  0
 20 33  1  0  0  0  0
 22 23  1  6  0  0  0
 22 28  1  0  0  0  0
 24 25  1  6  0  0  0
 24 30  1  0  0  0  0
 26 27  1  0  0  0  0
 28 29  1  6  0  0  0
 28 32  1  0  0  0  0
 30 31  1  6  0  0  0
M  END
>  <CHROM.1>
-164.78655392,-138.95183017,-80.19262176,43.95779070,178.10903253,-65.17617865
19.77912725,29.08203303,34.94041967,-0.53466476,-1.03327121,-1.93653692

>  <Name>
ligand

>  <RI>
0

>  <Rbt.Current_Directory>
/home/itssahil/PROJECTS/Mol_Feturizer/New_Systems/rnas/4p3s

>  <Rbt.Executable>
rbdock ($Id: //depot/dev/client3/rdock/2013.1/src/exe/rbdock.cxx#4 $)

>  <Rbt.Library>
libRbt.so (2013.1, Build901 2013/11/27)

>  <Rbt.Parameter_File>
/export/apps/rDock/src/rDock_2013.1_src/data/scripts/dock_solv.prm

>  <Rbt.Receptor>
prm/pocket_docking_4.prm

>  <SCORE>
-6.19155

>  <SCORE.INTER>
-6.34253

>  <SCORE.INTER.CONST>
1

>  <SCORE.INTER.POLAR>
0

>  <SCORE.INTER.ROT>
6

>  <SCORE.INTER.SOLV>
19.29

>  <SCORE.INTER.VDW>
-18.2584

>  <SCORE.INTER.norm>
-0.186545

>  <SCORE.INTRA>
0.144994

>  <SCORE.INTRA.DIHEDRAL>
-7.73728

>  <SCORE.INTRA.DIHEDRAL.0>
15.8194

>  <SCORE.INTRA.POLAR>
0

>  <SCORE.INTRA.POLAR.0>
0

>  <SCORE.INTRA.REPUL>
0

>  <SCORE.INTRA.REPUL.0>
0

>  <SCORE.INTRA.SOLV>
2.1047

>  <SCORE.INTRA.SOLV.lig_0>
-71.9159

>  <SCORE.INTRA.VDW>
2.96128

>  <SCORE.INTRA.VDW.0>
-3.53918

>  <SCORE.INTRA.norm>
0.00426453

>  <SCORE.RESTR>
0.00598914

>  <SCORE.RESTR.CAVITY>
0.00598914

>  <SCORE.RESTR.norm>
0.000176151

>  <SCORE.SYSTEM>
0

>  <SCORE.SYSTEM.CONST>
0

>  <SCORE.SYSTEM.DIHEDRAL>
0

>  <SCORE.SYSTEM.SOLV>
0

>  <SCORE.SYSTEM.norm>
0

>  <SCORE.heavy>
34

>  <SCORE.norm>
-0.182104

>  <RMSD>
8.806

$$$$
ligand
 OpenBabel01301917533D
libRbt.so/2013.1/901 2013/11/27
 34 36  0  0  0  0  0  0  0  0999 V2000
   20.4537   20.1851   33.2986 C   0  0  2  0  0  0  0  0  0  0  0  0
   19.0670   19.8811   33.1173 O   0  0  0  0  0  0  0  0  0  0  0  0
   17.8660   23.7125   31.6074 C   0  0  2  0  0  0  0  0  0  0  0  0
   17.1283   24.7674   30.8991 N   0  0  0  0  0  0  0  0  0  0  0  0
   15.9050   25.3105   33.2702 C   0  0  2  0  0  0  0  0  0  0  0  0
   20.9722   19.3740   34.5452 C   0  0  2  0  0  0  0  0  0  0  0  0
   20.7875   17.9278   34.3443 N   0  0  0  0  0  0  0  0  0  0  0  0
   18.2409   22.6040   30.5587 C   0  0  0  0  0  0  0  0  0  0  0  0
   16.9372   26.4987   33.4056 C   0  0  2  0  0  0  0  0  0  0  0  0
   18.0526   26.2805   32.5589 O   0  0  0  0  0  0  0  0  0  0  0  0
   20.2277   19.8348   35.8346 C   0  0  1  0  0  0  0  0  0  0  0  0
   20.6985   19.0957   36.9768 O   0  0  0  0  0  0  0  0  0  0  0  0
   19.0455   21.4873   31.3123 C   0  0  2  0  0  0  0  0  0  0  0  0
   19.4310   20.3939   30.3751 N   0  0  0  0  0  0  0  0  0  0  0  0
   17.4003   26.5777   34.9094 C   0  0  1  0  0  0  0  0  0  0  0  0
   18.3982   27.6500   35.0971 N   0  0  0  0  0  0  0  0  0  0  0  0
   20.4494   21.3555   36.0087 C   0  0  2  0  0  0  0  0  0  0  0  0
   19.7831   21.7975   37.1956 O   0  0  0  0  0  0  0  0  0  0  0  0
   18.1990   20.8801   32.4717 C   0  0  2  0  0  0  0  0  0  0  0  0
   16.1525   26.8317   35.8132 C   0  0  1  0  0  0  0  0  0  0  0  0
   15.5781   28.0817   35.4458 O   0  0  0  0  0  0  0  0  0  0  0  0
   19.9008   22.1033   34.7180 C   0  0  2  0  0  0  0  0  0  0  0  0
   20.5945   21.6251   33.5014 O   0  0  0  0  0  0  0  0  0  0  0  0
   17.7901   22.0132   33.4516 C   0  0  2  0  0  0  0  0  0  0  0  0
   16.9919   21.4373   34.4836 O   0  0  0  0  0  0  0  0  0  0  0  0
   15.1198   25.6820   35.5829 C   0  0  0  0  0  0  0  0  0  0  0  0
   14.7495   25.5683   34.1518 O   0  0  0  0  0  0  0  0  0  0  0  0
   20.0837   23.6463   34.7961 C   0  0  2  0  0  0  0  0  0  0  0  0
   18.9940   24.2139   35.5313 O   0  0  0  0  0  0  0  0  0  0  0  0
   16.9451   23.1050   32.7498 C   0  0  1  0  0  0  0  0  0  0  0  0
   16.6343   24.1294   33.7340 O   0  0  0  0  0  0  0  0  0  0  0  0
   20.1039   24.2893   33.4269 C   0  0  0  0  0  0  0  0  0  0  0  0
   16.5180   26.9015   37.2966 C   0  0  0  0  0  0  0  0  0  0  0  0
   19.7397   27.0170   35.0789 C   0  0  0  0  0  0  0  0  0  0  0  0
  1  2  1  1  0  0  0
  1  6  1  0  0  0  0
  1 23  1  0  0  0  0
  3  4  1  6  0  0  0
  3  8  1  0  0  0  0
  3 30  1  0  0  0  0
  5  9  1  0  0  0  0
  5 27  1  0  0  0  0
  5 31  1  1  0  0  0
  6  7  1  6  0  0  0
  6 11  1  0  0  0  0
  8 13  1  0  0  0  0
  9 10  1  6  0  0  0
  9 15  1  0  0  0  0
 11 12  1  1  0  0  0
 11 17  1  0  0  0  0
 13 14  1  6  0  0  0
 13 19  1  0  0  0  0
 15 16  1  6  0  0  0
 15 20  1  0  0  0  0
 16 34  1  0  0  0  0
 17 18  1  1  0  0  0
 17 22  1  0  0  0  0
 19  2  1  1  0  0  0
 19 24  1  0  0  0  0
 20 21  1  6  0  0  0
 20 26  1  0  0  0  0
 20 33  1  0  0  0  0
 22 23  1  6  0  0  0
 22 28  1  0  0  0  0
 24 25  1  1  0  0  0
 24 30  1  0  0  0  0
 26 27  1  0  0  0  0
 28 29  1  1  0  0  0
 28 32  1  0  0  0  0
 30 31  1  1  0  0  0
M  END
>  <CHROM.1>
152.83997924,40.07940635,-98.12133153,-83.75935518,60.96862787,-112.68710523
18.37132181,23.32187218,34.08038714,0.50157968,1.01299046,-2.05513721

>  <Name>
ligand

>  <RI>
0

>  <Rbt.Current_Directory>
/home/itssahil/PROJECTS/Mol_Feturizer/New_Systems/rnas/4p3s

>  <Rbt.Executable>
rbdock ($Id: //depot/dev/client3/rdock/2013.1/src/exe/rbdock.cxx#4 $)

>  <Rbt.Library>
libRbt.so (2013.1, Build901 2013/11/27)

>  <Rbt.Parameter_File>
/export/apps/rDock/src/rDock_2013.1_src/data/scripts/dock_solv.prm

>  <Rbt.Receptor>
prm/blind_docking_60.prm

>  <SCORE>
42.5345

>  <SCORE.INTER>
23.6153

>  <SCORE.INTER.CONST>
1

>  <SCORE.INTER.POLAR>
0

>  <SCORE.INTER.ROT>
6

>  <SCORE.INTER.SOLV>
23.6055

>  <SCORE.INTER.VDW>
0.275013

>  <SCORE.INTER.norm>
0.694567

>  <SCORE.INTRA>
15.7203

>  <SCORE.INTRA.DIHEDRAL>
-1.31837

>  <SCORE.INTRA.DIHEDRAL.0>
15.8194

>  <SCORE.INTRA.POLAR>
0

>  <SCORE.INTRA.POLAR.0>
0

>  <SCORE.INTRA.REPUL>
0

>  <SCORE.INTRA.REPUL.0>
0

>  <SCORE.INTRA.SOLV>
5.81906

>  <SCORE.INTRA.SOLV.lig_0>
-71.9159

>  <SCORE.INTRA.VDW>
13.4699

>  <SCORE.INTRA.VDW.0>
-3.53918

>  <SCORE.INTRA.norm>
0.462361

>  <SCORE.RESTR>
3.19897

>  <SCORE.RESTR.CAVITY>
3.19897

>  <SCORE.RESTR.norm>
0.0940874

>  <SCORE.SYSTEM>
0

>  <SCORE.SYSTEM.CONST>
0

>  <SCORE.SYSTEM.DIHEDRAL>
0

>  <SCORE.SYSTEM.SOLV>
0

>  <SCORE.SYSTEM.norm>
0

>  <SCORE.heavy>
34

>  <SCORE.norm>
1.25101

>  <RMSD>
8.815

$$$$
ligand
 OpenBabel01301917533D
libRbt.so/2013.1/901 2013/11/27
 34 36  0  0  0  0  0  0  0  0999 V2000
   20.6394   35.8016   30.2821 C   0  0  2  0  0  0  0  0  0  0  0  0
   20.4729   35.5852   31.6870 O   0  0  0  0  0  0  0  0  0  0  0  0
   22.3820   32.6698   34.1885 C   0  0  2  0  0  0  0  0  0  0  0  0
   23.4081   31.8898   34.8938 N   0  0  0  0  0  0  0  0  0  0  0  0
   22.5189   35.2483   36.9842 C   0  0  2  0  0  0  0  0  0  0  0  0
   21.4073   37.1627   30.0856 C   0  0  2  0  0  0  0  0  0  0  0  0
   22.7167   37.1281   30.7565 N   0  0  0  0  0  0  0  0  0  0  0  0
   22.7412   32.6606   32.6588 C   0  0  0  0  0  0  0  0  0  0  0  0
   23.7927   34.6464   37.6987 C   0  0  2  0  0  0  0  0  0  0  0  0
   24.7750   34.2948   36.7395 O   0  0  0  0  0  0  0  0  0  0  0  0
   20.5549   38.3458   30.6356 C   0  0  1  0  0  0  0  0  0  0  0  0
   21.2532   39.5921   30.4581 O   0  0  0  0  0  0  0  0  0  0  0  0
   21.6342   33.4775   31.9041 C   0  0  2  0  0  0  0  0  0  0  0  0
   21.9152   33.5161   30.4406 N   0  0  0  0  0  0  0  0  0  0  0  0
   23.3439   33.3741   38.5124 C   0  0  1  0  0  0  0  0  0  0  0  0
   24.5000   32.7403   39.1778 N   0  0  0  0  0  0  0  0  0  0  0  0
   19.1922   38.3467   29.9039 C   0  0  2  0  0  0  0  0  0  0  0  0
   18.3974   39.4346   30.3863 O   0  0  0  0  0  0  0  0  0  0  0  0
   21.5607   34.9392   32.4403 C   0  0  2  0  0  0  0  0  0  0  0  0
   22.2736   33.7969   39.5678 C   0  0  1  0  0  0  0  0  0  0  0  0
   22.8703   34.7266   40.4661 O   0  0  0  0  0  0  0  0  0  0  0  0
   18.4787   36.9480   30.1502 C   0  0  2  0  0  0  0  0  0  0  0  0
   19.3205   35.8364   29.6545 O   0  0  0  0  0  0  0  0  0  0  0  0
   21.2713   34.9084   33.9657 C   0  0  2  0  0  0  0  0  0  0  0  0
   21.2404   36.2543   34.4361 O   0  0  0  0  0  0  0  0  0  0  0  0
   21.0717   34.4669   38.8276 C   0  0  0  0  0  0  0  0  0  0  0  0
   21.5181   35.6166   38.0048 O   0  0  0  0  0  0  0  0  0  0  0  0
   17.0947   36.8490   29.4465 C   0  0  2  0  0  0  0  0  0  0  0  0
   16.2073   37.8199   30.0122 O   0  0  0  0  0  0  0  0  0  0  0  0
   22.3770   34.1565   34.7470 C   0  0  1  0  0  0  0  0  0  0  0  0
   22.0078   34.1570   36.1535 O   0  0  0  0  0  0  0  0  0  0  0  0
   16.4619   35.4859   29.6199 C   0  0  0  0  0  0  0  0  0  0  0  0
   21.7706   32.6086   40.3887 C   0  0  0  0  0  0  0  0  0  0  0  0
   24.4013   31.2788   38.9433 C   0  0  0  0  0  0  0  0  0  0  0  0
  1  2  1  1  0  0  0
  1  6  1  0  0  0  0
  1 23  1  0  0  0  0
  3  4  1  1  0  0  0
  3  8  1  0  0  0  0
  3 30  1  0  0  0  0
  5  9  1  0  0  0  0
  5 27  1  0  0  0  0
  5 31  1  6  0  0  0
  6  7  1  1  0  0  0
  6 11  1  0  0  0  0
  8 13  1  0  0  0  0
  9 10  1  6  0  0  0
  9 15  1  0  0  0  0
 11 12  1  6  0  0  0
 11 17  1  0  0  0  0
 13 14  1  6  0  0  0
 13 19  1  0  0  0  0
 15 16  1  1  0  0  0
 15 20  1  0  0  0  0
 16 34  1  0  0  0  0
 17 18  1  1  0  0  0
 17 22  1  0  0  0  0
 19  2  1  6  0  0  0
 19 24  1  0  0  0  0
 20 21  1  1  0  0  0
 20 26  1  0  0  0  0
 20 33  1  0  0  0  0
 22 23  1  6  0  0  0
 22 28  1  0  0  0  0
 24 25  1  1  0  0  0
 24 30  1  0  0  0  0
 26 27  1  0  0  0  0
 28 29  1  1  0  0  0
 28 32  1  0  0  0  0
 30 31  1  1  0  0  0
M  END
>  <CHROM.1>
-85.40597400,-66.82241270,-134.61843354,-63.83446164,152.38827012,-97.73501921
21.31669491,35.20071350,33.96282411,-2.22783982,-0.85728310,1.45854071

>  <Name>
ligand

>  <RI>
0

>  <Rbt.Current_Directory>
/home/itssahil/PROJECTS/Mol_Feturizer/New_Systems/rnas/4p3s

>  <Rbt.Executable>
rbdock ($Id: //depot/dev/client3/rdock/2013.1/src/exe/rbdock.cxx#4 $)

>  <Rbt.Library>
libRbt.so (2013.1, Build901 2013/11/27)

>  <Rbt.Parameter_File>
/export/apps/rDock/src/rDock_2013.1_src/data/scripts/dock_solv.prm

>  <Rbt.Receptor>
prm/blind_docking_60.prm

>  <SCORE>
7.02964

>  <SCORE.INTER>
-0.062618

>  <SCORE.INTER.CONST>
1

>  <SCORE.INTER.POLAR>
0

>  <SCORE.INTER.ROT>
6

>  <SCORE.INTER.SOLV>
20.3742

>  <SCORE.INTER.VDW>
-14.4332

>  <SCORE.INTER.norm>
-0.00184171

>  <SCORE.INTRA>
1.67697

>  <SCORE.INTRA.DIHEDRAL>
-3.58055

>  <SCORE.INTRA.DIHEDRAL.0>
15.8194

>  <SCORE.INTRA.POLAR>
0

>  <SCORE.INTRA.POLAR.0>
0

>  <SCORE.INTRA.REPUL>
0

>  <SCORE.INTRA.REPUL.0>
0

>  <SCORE.INTRA.SOLV>
3.43001

>  <SCORE.INTRA.SOLV.lig_0>
-71.9159

>  <SCORE.INTRA.VDW>
1.75224

>  <SCORE.INTRA.VDW.0>
-3.53918

>  <SCORE.INTRA.norm>
0.0493225

>  <SCORE.RESTR>
5.4153

>  <SCORE.RESTR.CAVITY>
5.4153

>  <SCORE.RESTR.norm>
0.159273

>  <SCORE.SYSTEM>
0

>  <SCORE.SYSTEM.CONST>
0

>  <SCORE.SYSTEM.DIHEDRAL>
0

>  <SCORE.SYSTEM.SOLV>
0

>  <SCORE.SYSTEM.norm>
0

>  <SCORE.heavy>
34

>  <SCORE.norm>
0.206754

>  <RMSD>
8.819

$$$$
ligand
 OpenBabel01301917533D
libRbt.so/2013.1/901 2013/11/27
 34 36  0  0  0  0  0  0  0  0999 V2000
   20.3869   35.8117   30.4660 C   0  0  2  0  0  0  0  0  0  0  0  0
   20.2630   35.5056   31.8586 O   0  0  0  0  0  0  0  0  0  0  0  0
   22.3481   32.6074   34.2366 C   0  0  2  0  0  0  0  0  0  0  0  0
   23.4223   31.8416   34.8832 N   0  0  0  0  0  0  0  0  0  0  0  0
   22.5510   35.1817   37.0394 C   0  0  2  0  0  0  0  0  0  0  0  0
   21.3413   37.0565   30.3232 C   0  0  2  0  0  0  0  0  0  0  0  0
   22.6635   36.7736   30.9044 N   0  0  0  0  0  0  0  0  0  0  0  0
   22.6307   32.6170   32.6909 C   0  0  0  0  0  0  0  0  0  0  0  0
   23.8200   34.5961   37.7756 C   0  0  2  0  0  0  0  0  0  0  0  0
   24.8082   34.2223   36.8310 O   0  0  0  0  0  0  0  0  0  0  0  0
   20.7083   38.3021   31.0136 C   0  0  1  0  0  0  0  0  0  0  0  0
   21.5777   39.4424   30.8855 O   0  0  0  0  0  0  0  0  0  0  0  0
   21.4725   33.4186   31.9993 C   0  0  2  0  0  0  0  0  0  0  0  0
   21.6795   33.4740   30.5240 N   0  0  0  0  0  0  0  0  0  0  0  0
   23.3655   33.3429   38.6154 C   0  0  1  0  0  0  0  0  0  0  0  0
   24.5170   32.7241   39.3025 N   0  0  0  0  0  0  0  0  0  0  0  0
   19.3254   38.5647   30.3728 C   0  0  2  0  0  0  0  0  0  0  0  0
   18.7313   39.7137   30.9851 O   0  0  0  0  0  0  0  0  0  0  0  0
   21.3987   34.8744   32.5513 C   0  0  2  0  0  0  0  0  0  0  0  0
   22.2886   33.7900   39.6540 C   0  0  1  0  0  0  0  0  0  0  0  0
   22.8801   34.7399   40.5345 O   0  0  0  0  0  0  0  0  0  0  0  0
   18.4215   37.2707   30.5590 C   0  0  2  0  0  0  0  0  0  0  0  0
   19.0577   36.0927   29.9286 O   0  0  0  0  0  0  0  0  0  0  0  0
   21.1863   34.8262   34.0888 C   0  0  2  0  0  0  0  0  0  0  0  0
   21.1539   36.1676   34.5719 O   0  0  0  0  0  0  0  0  0  0  0  0
   21.0918   34.4432   38.8910 C   0  0  0  0  0  0  0  0  0  0  0  0
   21.5439   35.5737   38.0450 O   0  0  0  0  0  0  0  0  0  0  0  0
   17.0038   37.4357   29.9400 C   0  0  2  0  0  0  0  0  0  0  0  0
   16.2076   36.2933   30.2734 O   0  0  0  0  0  0  0  0  0  0  0  0
   22.3433   34.0893   34.8077 C   0  0  1  0  0  0  0  0  0  0  0  0
   22.0447   34.0719   36.2307 O   0  0  0  0  0  0  0  0  0  0  0  0
   17.0481   37.5457   28.4318 C   0  0  0  0  0  0  0  0  0  0  0  0
   21.7799   32.6210   40.4987 C   0  0  0  0  0  0  0  0  0  0  0  0
   24.4407   31.2612   39.0682 C   0  0  0  0  0  0  0  0  0  0  0  0
  1  2  1  1  0  0  0
  1  6  1  0  0  0  0
  1 23  1  0  0  0  0
  3  4  1  1  0  0  0
  3  8  1  0  0  0  0
  3 30  1  0  0  0  0
  5  9  1  0  0  0  0
  5 27  1  0  0  0  0
  5 31  1  6  0  0  0
  6  7  1  1  0  0  0
  6 11  1  0  0  0  0
  8 13  1  0  0  0  0
  9 10  1  6  0  0  0
  9 15  1  0  0  0  0
 11 12  1  6  0  0  0
 11 17  1  0  0  0  0
 13 14  1  6  0  0  0
 13 19  1  0  0  0  0
 15 16  1  1  0  0  0
 15 20  1  0  0  0  0
 16 34  1  0  0  0  0
 17 18  1  1  0  0  0
 17 22  1  0  0  0  0
 19  2  1  6  0  0  0
 19 24  1  0  0  0  0
 20 21  1  1  0  0  0
 20 26  1  0  0  0  0
 20 33  1  0  0  0  0
 22 23  1  6  0  0  0
 22 28  1  0  0  0  0
 24 25  1  1  0  0  0
 24 30  1  0  0  0  0
 26 27  1  0  0  0  0
 28 29  1  6  0  0  0
 28 32  1  0  0  0  0
 30 31  1  1  0  0  0
M  END
>  <CHROM.1>
-73.57532552,-70.65319107,-133.02706800,-173.78535902,153.71614275,-102.00038797
21.31802782,35.21324595,34.09569859,-2.30438525,-0.92982378,1.37567668

>  <Name>
ligand

>  <RI>
0

>  <Rbt.Current_Directory>
/home/itssahil/PROJECTS/Mol_Feturizer/New_Systems/rnas/4p3s

>  <Rbt.Executable>
rbdock ($Id: //depot/dev/client3/rdock/2013.1/src/exe/rbdock.cxx#4 $)

>  <Rbt.Library>
libRbt.so (2013.1, Build901 2013/11/27)

>  <Rbt.Parameter_File>
/export/apps/rDock/src/rDock_2013.1_src/data/scripts/dock_solv.prm

>  <Rbt.Receptor>
prm/blind_docking_60.prm

>  <SCORE>
4.99893

>  <SCORE.INTER>
-1.60051

>  <SCORE.INTER.CONST>
1

>  <SCORE.INTER.POLAR>
0

>  <SCORE.INTER.ROT>
6

>  <SCORE.INTER.SOLV>
19.4563

>  <SCORE.INTER.VDW>
-15.1524

>  <SCORE.INTER.norm>
-0.0470738

>  <SCORE.INTRA>
1.35024

>  <SCORE.INTRA.DIHEDRAL>
-4.5437

>  <SCORE.INTRA.DIHEDRAL.0>
15.8194

>  <SCORE.INTRA.POLAR>
0

>  <SCORE.INTRA.POLAR.0>
0

>  <SCORE.INTRA.REPUL>
0

>  <SCORE.INTRA.REPUL.0>
0

>  <SCORE.INTRA.SOLV>
3.67154

>  <SCORE.INTRA.SOLV.lig_0>
-71.9159

>  <SCORE.INTRA.VDW>
1.78632

>  <SCORE.INTRA.VDW.0>
-3.53918

>  <SCORE.INTRA.norm>
0.039713

>  <SCORE.RESTR>
5.2492

>  <SCORE.RESTR.CAVITY>
5.2492

>  <SCORE.RESTR.norm>
0.154388

>  <SCORE.SYSTEM>
0

>  <SCORE.SYSTEM.CONST>
0

>  <SCORE.SYSTEM.DIHEDRAL>
0

>  <SCORE.SYSTEM.SOLV>
0

>  <SCORE.SYSTEM.norm>
0

>  <SCORE.heavy>
34

>  <SCORE.norm>
0.147027

>  <RMSD>
8.822

$$$$
ligand
 OpenBabel01301917533D
libRbt.so/2013.1/901 2013/11/27
 34 36  0  0  0  0  0  0  0  0999 V2000
   21.3831   28.3444   36.7274 C   0  0  2  0  0  0  0  0  0  0  0  0
   20.1409   28.6055   37.3884 O   0  0  0  0  0  0  0  0  0  0  0  0
   16.1465   27.3839   36.4111 C   0  0  2  0  0  0  0  0  0  0  0  0
   14.8259   27.3041   35.7722 N   0  0  0  0  0  0  0  0  0  0  0  0
   16.5094   25.3650   33.6171 C   0  0  2  0  0  0  0  0  0  0  0  0
   22.5271   28.3729   37.8096 C   0  0  2  0  0  0  0  0  0  0  0  0
   22.2840   27.3681   38.8570 N   0  0  0  0  0  0  0  0  0  0  0  0
   16.3549   28.8640   36.8959 C   0  0  0  0  0  0  0  0  0  0  0  0
   16.6249   23.8042   33.4027 C   0  0  2  0  0  0  0  0  0  0  0  0
   15.8545   23.1158   34.3727 O   0  0  0  0  0  0  0  0  0  0  0  0
   22.6328   29.7927   38.4438 C   0  0  1  0  0  0  0  0  0  0  0  0
   23.6774   29.8232   39.4339 O   0  0  0  0  0  0  0  0  0  0  0  0
   17.7574   28.9438   37.5952 C   0  0  2  0  0  0  0  0  0  0  0  0
   18.0263   30.3285   38.0776 N   0  0  0  0  0  0  0  0  0  0  0  0
   18.1435   23.4029   33.5261 C   0  0  1  0  0  0  0  0  0  0  0  0
   18.3166   21.9445   33.3709 N   0  0  0  0  0  0  0  0  0  0  0  0
   22.8902   30.8146   37.3118 C   0  0  2  0  0  0  0  0  0  0  0  0
   23.0029   32.1254   37.8749 O   0  0  0  0  0  0  0  0  0  0  0  0
   18.8922   28.5249   36.6122 C   0  0  2  0  0  0  0  0  0  0  0  0
   18.9615   24.1665   32.4371 C   0  0  1  0  0  0  0  0  0  0  0  0
   18.4863   23.7676   31.1555 O   0  0  0  0  0  0  0  0  0  0  0  0
   21.6974   30.7293   36.2648 C   0  0  2  0  0  0  0  0  0  0  0  0
   21.5912   29.3645   35.7024 O   0  0  0  0  0  0  0  0  0  0  0  0
   18.6182   27.0841   36.1020 C   0  0  2  0  0  0  0  0  0  0  0  0
   19.6517   26.7378   35.1823 O   0  0  0  0  0  0  0  0  0  0  0  0
   18.7489   25.7024   32.6304 C   0  0  0  0  0  0  0  0  0  0  0  0
   17.3100   26.0572   32.5882 O   0  0  0  0  0  0  0  0  0  0  0  0
   21.8683   31.7220   35.0792 C   0  0  2  0  0  0  0  0  0  0  0  0
   21.8671   33.0625   35.5824 O   0  0  0  0  0  0  0  0  0  0  0  0
   17.2646   26.9844   35.3562 C   0  0  1  0  0  0  0  0  0  0  0  0
   17.0846   25.6022   34.9419 O   0  0  0  0  0  0  0  0  0  0  0  0
   20.7475   31.6047   34.0699 C   0  0  0  0  0  0  0  0  0  0  0  0
   20.4550   23.8443   32.5044 C   0  0  0  0  0  0  0  0  0  0  0  0
   19.2156   21.4855   34.4581 C   0  0  0  0  0  0  0  0  0  0  0  0
  1  2  1  1  0  0  0
  1  6  1  0  0  0  0
  1 23  1  0  0  0  0
  3  4  1  6  0  0  0
  3  8  1  0  0  0  0
  3 30  1  0  0  0  0
  5  9  1  0  0  0  0
  5 27  1  0  0  0  0
  5 31  1  1  0  0  0
  6  7  1  1  0  0  0
  6 11  1  0  0  0  0
  8 13  1  0  0  0  0
  9 10  1  1  0  0  0
  9 15  1  0  0  0  0
 11 12  1  1  0  0  0
 11 17  1  0  0  0  0
 13 14  1  6  0  0  0
 13 19  1  0  0  0  0
 15 16  1  6  0  0  0
 15 20  1  0  0  0  0
 16 34  1  0  0  0  0
 17 18  1  1  0  0  0
 17 22  1  0  0  0  0
 19  2  1  1  0  0  0
 19 24  1  0  0  0  0
 20 21  1  6  0  0  0
 20 26  1  0  0  0  0
 20 33  1  0  0  0  0
 22 23  1  6  0  0  0
 22 28  1  0  0  0  0
 24 25  1  6  0  0  0
 24 30  1  0  0  0  0
 26 27  1  0  0  0  0
 28 29  1  1  0  0  0
 28 32  1  0  0  0  0
 30 31  1  1  0  0  0
M  END
>  <CHROM.1>
-175.03576254,-176.66151439,-133.49558387,-62.07175267,104.44088246,172.80229188
19.42163613,27.41977924,35.49899678,-1.06001002,-0.01782961,-2.61730404

>  <Name>
ligand

>  <RI>
0

>  <Rbt.Current_Directory>
/home/itssahil/PROJECTS/Mol_Feturizer/New_Systems/rnas/4p3s

>  <Rbt.Executable>
rbdock ($Id: //depot/dev/client3/rdock/2013.1/src/exe/rbdock.cxx#4 $)

>  <Rbt.Library>
libRbt.so (2013.1, Build901 2013/11/27)

>  <Rbt.Parameter_File>
/export/apps/rDock/src/rDock_2013.1_src/data/scripts/dock_solv.prm

>  <Rbt.Receptor>
prm/pocket_docking_3.prm

>  <SCORE>
-11.4055

>  <SCORE.INTER>
-7.82611

>  <SCORE.INTER.CONST>
1

>  <SCORE.INTER.POLAR>
0

>  <SCORE.INTER.ROT>
6

>  <SCORE.INTER.SOLV>
14.7304

>  <SCORE.INTER.VDW>
-17.7275

>  <SCORE.INTER.norm>
-0.23018

>  <SCORE.INTRA>
-4.18126

>  <SCORE.INTRA.DIHEDRAL>
-8.25223

>  <SCORE.INTRA.DIHEDRAL.0>
15.8194

>  <SCORE.INTRA.POLAR>
0

>  <SCORE.INTRA.POLAR.0>
0

>  <SCORE.INTRA.REPUL>
0

>  <SCORE.INTRA.REPUL.0>
0

>  <SCORE.INTRA.SOLV>
-1.43374

>  <SCORE.INTRA.SOLV.lig_0>
-71.9159

>  <SCORE.INTRA.VDW>
0.661728

>  <SCORE.INTRA.VDW.0>
-3.53918

>  <SCORE.INTRA.norm>
-0.122978

>  <SCORE.RESTR>
0.601862

>  <SCORE.RESTR.CAVITY>
0.601862

>  <SCORE.RESTR.norm>
0.0177018

>  <SCORE.SYSTEM>
0

>  <SCORE.SYSTEM.CONST>
0

>  <SCORE.SYSTEM.DIHEDRAL>
0

>  <SCORE.SYSTEM.SOLV>
0

>  <SCORE.SYSTEM.norm>
0

>  <SCORE.heavy>
34

>  <SCORE.norm>
-0.335456

>  <RMSD>
8.848

$$$$
ligand
 OpenBabel01301917533D
libRbt.so/2013.1/901 2013/11/27
 34 36  0  0  0  0  0  0  0  0999 V2000
   19.5176   37.0031   32.1775 C   0  0  2  0  0  0  0  0  0  0  0  0
   19.8464   35.6186   32.0251 O   0  0  0  0  0  0  0  0  0  0  0  0
   22.6070   32.9002   33.8668 C   0  0  2  0  0  0  0  0  0  0  0  0
   23.8513   32.2753   34.3356 N   0  0  0  0  0  0  0  0  0  0  0  0
   22.3539   32.6712   36.5232 C   0  0  2  0  0  0  0  0  0  0  0  0
   18.1275   37.2540   31.4808 C   0  0  2  0  0  0  0  0  0  0  0  0
   17.0805   36.4106   32.0797 N   0  0  0  0  0  0  0  0  0  0  0  0
   22.7432   33.1355   32.3192 C   0  0  0  0  0  0  0  0  0  0  0  0
   21.3738   32.5880   37.7593 C   0  0  2  0  0  0  0  0  0  0  0  0
   20.0389   32.8232   37.3456 O   0  0  0  0  0  0  0  0  0  0  0  0
   18.2330   36.9717   29.9517 C   0  0  1  0  0  0  0  0  0  0  0  0
   16.9642   37.1997   29.3109 O   0  0  0  0  0  0  0  0  0  0  0  0
   21.4063   33.7851   31.8162 C   0  0  2  0  0  0  0  0  0  0  0  0
   21.4667   34.0434   30.3492 N   0  0  0  0  0  0  0  0  0  0  0  0
   21.8184   33.6726   38.8121 C   0  0  1  0  0  0  0  0  0  0  0  0
   20.9165   33.6716   39.9814 N   0  0  0  0  0  0  0  0  0  0  0  0
   19.3398   37.8779   29.3637 C   0  0  2  0  0  0  0  0  0  0  0  0
   19.4448   37.6429   27.9559 O   0  0  0  0  0  0  0  0  0  0  0  0
   21.1320   35.1312   32.5524 C   0  0  2  0  0  0  0  0  0  0  0  0
   23.2859   33.3779   39.2570 C   0  0  1  0  0  0  0  0  0  0  0  0
   23.3190   32.0973   39.8785 O   0  0  0  0  0  0  0  0  0  0  0  0
   20.7071   37.5661   30.1115 C   0  0  2  0  0  0  0  0  0  0  0  0
   20.5746   37.8051   31.5659 O   0  0  0  0  0  0  0  0  0  0  0  0
   21.0706   34.8719   34.0823 C   0  0  2  0  0  0  0  0  0  0  0  0
   20.8505   36.1216   34.7331 O   0  0  0  0  0  0  0  0  0  0  0  0
   24.2067   33.3818   37.9946 C   0  0  0  0  0  0  0  0  0  0  0  0
   23.7336   32.4110   36.9789 O   0  0  0  0  0  0  0  0  0  0  0  0
   21.8871   38.4358   29.5905 C   0  0  2  0  0  0  0  0  0  0  0  0
   23.1257   37.8363   29.9864 O   0  0  0  0  0  0  0  0  0  0  0  0
   22.3976   34.2823   34.6206 C   0  0  1  0  0  0  0  0  0  0  0  0
   22.2361   34.0501   36.0470 O   0  0  0  0  0  0  0  0  0  0  0  0
   21.8522   39.8407   30.1507 C   0  0  0  0  0  0  0  0  0  0  0  0
   23.8001   34.4034   40.2683 C   0  0  0  0  0  0  0  0  0  0  0  0
   20.2875   35.0129   40.0586 C   0  0  0  0  0  0  0  0  0  0  0  0
  1  2  1  6  0  0  0
  1  6  1  0  0  0  0
  1 23  1  0  0  0  0
  3  4  1  1  0  0  0
  3  8  1  0  0  0  0
  3 30  1  0  0  0  0
  5  9  1  0  0  0  0
  5 27  1  0  0  0  0
  5 31  1  1  0  0  0
  6  7  1  1  0  0  0
  6 11  1  0  0  0  0
  8 13  1  0  0  0  0
  9 10  1  6  0  0  0
  9 15  1  0  0  0  0
 11 12  1  6  0  0  0
 11 17  1  0  0  0  0
 13 14  1  6  0  0  0
 13 19  1  0  0  0  0
 15 16  1  1  0  0  0
 15 20  1  0  0  0  0
 16 34  1  0  0  0  0
 17 18  1  6  0  0  0
 17 22  1  0  0  0  0
 19  2  1  6  0  0  0
 19 24  1  0  0  0  0
 20 21  1  1  0  0  0
 20 26  1  0  0  0  0
 20 33  1  0  0  0  0
 22 23  1  1  0  0  0
 22 28  1  0  0  0  0
 24 25  1  1  0  0  0
 24 30  1  0  0  0  0
 26 27  1  0  0  0  0
 28 29  1  1  0  0  0
 28 32  1  0  0  0  0
 30 31  1  1  0  0  0
M  END
>  <CHROM.1>
177.86971994,-160.68599854,-118.89589480,-162.17884880,2.81399907,-147.97248495
21.22179490,35.14104810,33.98697314,1.87588861,0.43725670,-1.24746955

>  <Name>
ligand

>  <RI>
0

>  <Rbt.Current_Directory>
/home/itssahil/PROJECTS/Mol_Feturizer/New_Systems/rnas/4p3s

>  <Rbt.Executable>
rbdock ($Id: //depot/dev/client3/rdock/2013.1/src/exe/rbdock.cxx#4 $)

>  <Rbt.Library>
libRbt.so (2013.1, Build901 2013/11/27)

>  <Rbt.Parameter_File>
/export/apps/rDock/src/rDock_2013.1_src/data/scripts/dock_solv.prm

>  <Rbt.Receptor>
prm/blind_docking_60.prm

>  <SCORE>
13.9214

>  <SCORE.INTER>
1.22148

>  <SCORE.INTER.CONST>
1

>  <SCORE.INTER.POLAR>
0

>  <SCORE.INTER.ROT>
6

>  <SCORE.INTER.SOLV>
11.5722

>  <SCORE.INTER.VDW>
-10.6431

>  <SCORE.INTER.norm>
0.035926

>  <SCORE.INTRA>
3.80593

>  <SCORE.INTRA.DIHEDRAL>
-0.702865

>  <SCORE.INTRA.DIHEDRAL.0>
15.8194

>  <SCORE.INTRA.POLAR>
0

>  <SCORE.INTRA.POLAR.0>
0

>  <SCORE.INTRA.REPUL>
0

>  <SCORE.INTRA.REPUL.0>
0

>  <SCORE.INTRA.SOLV>
1.0032

>  <SCORE.INTRA.SOLV.lig_0>
-71.9159

>  <SCORE.INTRA.VDW>
3.65576

>  <SCORE.INTRA.VDW.0>
-3.53918

>  <SCORE.INTRA.norm>
0.111939

>  <SCORE.RESTR>
8.89403

>  <SCORE.RESTR.CAVITY>
8.89403

>  <SCORE.RESTR.norm>
0.261589

>  <SCORE.SYSTEM>
0

>  <SCORE.SYSTEM.CONST>
0

>  <SCORE.SYSTEM.DIHEDRAL>
0

>  <SCORE.SYSTEM.SOLV>
0

>  <SCORE.SYSTEM.norm>
0

>  <SCORE.heavy>
34

>  <SCORE.norm>
0.409454

>  <RMSD>
8.853

$$$$
ligand
 OpenBabel01301917533D
libRbt.so/2013.1/901 2013/11/27
 34 36  0  0  0  0  0  0  0  0999 V2000
   23.2828   32.2230   35.1516 C   0  0  2  0  0  0  0  0  0  0  0  0
   21.8970   31.8948   35.0102 O   0  0  0  0  0  0  0  0  0  0  0  0
   21.4883   32.5119   30.7847 C   0  0  2  0  0  0  0  0  0  0  0  0
   20.9053   32.7010   29.4495 N   0  0  0  0  0  0  0  0  0  0  0  0
   21.3448   35.3390   29.7862 C   0  0  2  0  0  0  0  0  0  0  0  0
   23.8582   31.3987   36.3641 C   0  0  2  0  0  0  0  0  0  0  0  0
   23.6950   29.9532   36.1406 N   0  0  0  0  0  0  0  0  0  0  0  0
   20.8864   31.1913   31.3871 C   0  0  0  0  0  0  0  0  0  0  0  0
   21.5821   36.8992   29.7172 C   0  0  2  0  0  0  0  0  0  0  0  0
   22.9512   37.1987   29.9285 O   0  0  0  0  0  0  0  0  0  0  0  0
   23.1484   31.8195   37.6862 C   0  0  1  0  0  0  0  0  0  0  0  0
   23.6713   31.0682   38.7973 O   0  0  0  0  0  0  0  0  0  0  0  0
   21.5243   30.9799   32.8051 C   0  0  2  0  0  0  0  0  0  0  0  0
   20.9917   29.7417   33.4419 N   0  0  0  0  0  0  0  0  0  0  0  0
   20.6964   37.5800   30.8282 C   0  0  1  0  0  0  0  0  0  0  0  0
   20.9006   39.0426   30.8410 N   0  0  0  0  0  0  0  0  0  0  0  0
   23.3462   33.3408   37.8831 C   0  0  2  0  0  0  0  0  0  0  0  0
   22.7114   33.7464   39.0999 O   0  0  0  0  0  0  0  0  0  0  0  0
   21.2224   32.1932   33.7357 C   0  0  2  0  0  0  0  0  0  0  0  0
   19.1956   37.2428   30.5596 C   0  0  1  0  0  0  0  0  0  0  0  0
   18.8333   37.7819   29.2926 O   0  0  0  0  0  0  0  0  0  0  0  0
   22.7404   34.1021   36.6263 C   0  0  2  0  0  0  0  0  0  0  0  0
   23.4023   33.6614   35.3782 O   0  0  0  0  0  0  0  0  0  0  0  0
   21.7712   33.4886   33.0783 C   0  0  2  0  0  0  0  0  0  0  0  0
   21.4548   34.5854   33.9332 O   0  0  0  0  0  0  0  0  0  0  0  0
   19.0212   35.6901   30.5481 C   0  0  0  0  0  0  0  0  0  0  0  0
   19.9157   35.0542   29.5512 O   0  0  0  0  0  0  0  0  0  0  0  0
   22.8958   35.6467   36.7290 C   0  0  2  0  0  0  0  0  0  0  0  0
   23.8587   35.9576   37.7422 O   0  0  0  0  0  0  0  0  0  0  0  0
   21.1186   33.7563   31.6996 C   0  0  1  0  0  0  0  0  0  0  0  0
   21.7108   34.9670   31.1536 O   0  0  0  0  0  0  0  0  0  0  0  0
   21.5969   36.3282   37.0992 C   0  0  0  0  0  0  0  0  0  0  0  0
   18.2688   37.8539   31.6116 C   0  0  0  0  0  0  0  0  0  0  0  0
   20.9972   39.4654   32.2597 C   0  0  0  0  0  0  0  0  0  0  0  0
  1  2  1  1  0  0  0
  1  6  1  0  0  0  0
  1 23  1  0  0  0  0
  3  4  1  6  0  0  0
  3  8  1  0  0  0  0
  3 30  1  0  0  0  0
  5  9  1  0  0  0  0
  5 27  1  0  0  0  0
  5 31  1  1  0  0  0
  6  7  1  6  0  0  0
  6 11  1  0  0  0  0
  8 13  1  0  0  0  0
  9 10  1  1  0  0  0
  9 15  1  0  0  0  0
 11 12  1  1  0  0  0
 11 17  1  0  0  0  0
 13 14  1  1  0  0  0
 13 19  1  0  0  0  0
 15 16  1  6  0  0  0
 15 20  1  0  0  0  0
 16 34  1  0  0  0  0
 17 18  1  1  0  0  0
 17 22  1  0  0  0  0
 19  2  1  1  0  0  0
 19 24  1  0  0  0  0
 20 21  1  6  0  0  0
 20 26  1  0  0  0  0
 20 33  1  0  0  0  0
 22 23  1  6  0  0  0
 22 28  1  0  0  0  0
 24 25  1  1  0  0  0
 24 30  1  0  0  0  0
 26 27  1  0  0  0  0
 28 29  1  1  0  0  0
 28 32  1  0  0  0  0
 30 31  1  6  0  0  0
M  END
>  <CHROM.1>
-161.60282531,84.52315415,-137.20561689,15.70638759,58.32933600,155.76452881
21.67601166,34.34681124,33.44114981,0.27268587,1.22405619,-2.85862605

>  <Name>
ligand

>  <RI>
0

>  <Rbt.Current_Directory>
/home/itssahil/PROJECTS/Mol_Feturizer/New_Systems/rnas/4p3s

>  <Rbt.Executable>
rbdock ($Id: //depot/dev/client3/rdock/2013.1/src/exe/rbdock.cxx#4 $)

>  <Rbt.Library>
libRbt.so (2013.1, Build901 2013/11/27)

>  <Rbt.Parameter_File>
/export/apps/rDock/src/rDock_2013.1_src/data/scripts/dock_solv.prm

>  <Rbt.Receptor>
prm/blind_docking_100.prm

>  <SCORE>
7.25799

>  <SCORE.INTER>
1.42986

>  <SCORE.INTER.CONST>
1

>  <SCORE.INTER.POLAR>
0

>  <SCORE.INTER.ROT>
6

>  <SCORE.INTER.SOLV>
17.4652

>  <SCORE.INTER.VDW>
-12.4685

>  <SCORE.INTER.norm>
0.0420547

>  <SCORE.INTRA>
2.85891

>  <SCORE.INTRA.DIHEDRAL>
-3.59403

>  <SCORE.INTRA.DIHEDRAL.0>
15.8194

>  <SCORE.INTRA.POLAR>
0

>  <SCORE.INTRA.POLAR.0>
0

>  <SCORE.INTRA.REPUL>
0

>  <SCORE.INTRA.REPUL.0>
0

>  <SCORE.INTRA.SOLV>
2.33052

>  <SCORE.INTRA.SOLV.lig_0>
-71.9159

>  <SCORE.INTRA.VDW>
3.49067

>  <SCORE.INTRA.VDW.0>
-3.53918

>  <SCORE.INTRA.norm>
0.0840856

>  <SCORE.RESTR>
2.96922

>  <SCORE.RESTR.CAVITY>
2.96922

>  <SCORE.RESTR.norm>
0.0873301

>  <SCORE.SYSTEM>
0

>  <SCORE.SYSTEM.CONST>
0

>  <SCORE.SYSTEM.DIHEDRAL>
0

>  <SCORE.SYSTEM.SOLV>
0

>  <SCORE.SYSTEM.norm>
0

>  <SCORE.heavy>
34

>  <SCORE.norm>
0.21347

>  <RMSD>
8.856

$$$$
ligand
 OpenBabel01301917533D
libRbt.so/2013.1/901 2013/11/27
 34 36  0  0  0  0  0  0  0  0999 V2000
   22.1933   27.4913   37.7031 C   0  0  2  0  0  0  0  0  0  0  0  0
   21.0142   27.8145   38.4470 O   0  0  0  0  0  0  0  0  0  0  0  0
   16.8636   27.7174   37.3679 C   0  0  2  0  0  0  0  0  0  0  0  0
   15.5655   28.0623   36.7724 N   0  0  0  0  0  0  0  0  0  0  0  0
   16.5792   26.3364   34.3332 C   0  0  2  0  0  0  0  0  0  0  0  0
   23.3252   27.1027   38.7271 C   0  0  2  0  0  0  0  0  0  0  0  0
   22.9132   25.9580   39.5553 N   0  0  0  0  0  0  0  0  0  0  0  0
   17.3806   28.9774   38.1516 C   0  0  0  0  0  0  0  0  0  0  0  0
   16.1697   24.8789   33.8823 C   0  0  2  0  0  0  0  0  0  0  0  0
   15.3989   24.2498   34.8915 O   0  0  0  0  0  0  0  0  0  0  0  0
   23.6728   28.3219   39.6335 C   0  0  1  0  0  0  0  0  0  0  0  0
   24.7070   27.9709   40.5714 O   0  0  0  0  0  0  0  0  0  0  0  0
   18.7577   28.6016   38.8032 C   0  0  2  0  0  0  0  0  0  0  0  0
   19.3133   29.7583   39.5620 N   0  0  0  0  0  0  0  0  0  0  0  0
   17.4883   24.0601   33.6120 C   0  0  1  0  0  0  0  0  0  0  0  0
   17.1743   22.6713   33.2200 N   0  0  0  0  0  0  0  0  0  0  0  0
   24.1017   29.4981   38.7255 C   0  0  2  0  0  0  0  0  0  0  0  0
   24.4375   30.6259   39.5400 O   0  0  0  0  0  0  0  0  0  0  0  0
   19.7880   28.1732   37.7150 C   0  0  2  0  0  0  0  0  0  0  0  0
   18.3068   24.7705   32.4879 C   0  0  1  0  0  0  0  0  0  0  0  0
   17.5234   24.7804   31.2989 O   0  0  0  0  0  0  0  0  0  0  0  0
   22.9121   29.8329   37.7262 C   0  0  2  0  0  0  0  0  0  0  0  0
   22.5734   28.6520   36.9011 O   0  0  0  0  0  0  0  0  0  0  0  0
   19.2158   26.9702   36.9170 C   0  0  2  0  0  0  0  0  0  0  0  0
   20.1621   26.6188   35.9096 O   0  0  0  0  0  0  0  0  0  0  0  0
   18.6141   26.2355   32.9362 C   0  0  0  0  0  0  0  0  0  0  0  0
   17.3694   26.9725   33.2609 O   0  0  0  0  0  0  0  0  0  0  0  0
   23.2508   31.0067   36.7629 C   0  0  2  0  0  0  0  0  0  0  0  0
   23.5897   32.1657   37.5323 O   0  0  0  0  0  0  0  0  0  0  0  0
   17.8826   27.3265   36.2141 C   0  0  1  0  0  0  0  0  0  0  0  0
   17.4136   26.1384   35.5192 O   0  0  0  0  0  0  0  0  0  0  0  0
   22.0841   31.3678   35.8700 C   0  0  0  0  0  0  0  0  0  0  0  0
   19.6170   24.0442   32.1800 C   0  0  0  0  0  0  0  0  0  0  0  0
   17.8934   21.7721   34.1554 C   0  0  0  0  0  0  0  0  0  0  0  0
  1  2  1  1  0  0  0
  1  6  1  0  0  0  0
  1 23  1  0  0  0  0
  3  4  1  6  0  0  0
  3  8  1  0  0  0  0
  3 30  1  0  0  0  0
  5  9  1  0  0  0  0
  5 27  1  0  0  0  0
  5 31  1  1  0  0  0
  6  7  1  1  0  0  0
  6 11  1  0  0  0  0
  8 13  1  0  0  0  0
  9 10  1  1  0  0  0
  9 15  1  0  0  0  0
 11 12  1  1  0  0  0
 11 17  1  0  0  0  0
 13 14  1  6  0  0  0
 13 19  1  0  0  0  0
 15 16  1  6  0  0  0
 15 20  1  0  0  0  0
 16 34  1  0  0  0  0
 17 18  1  1  0  0  0
 17 22  1  0  0  0  0
 19  2  1  1  0  0  0
 19 24  1  0  0  0  0
 20 21  1  6  0  0  0
 20 26  1  0  0  0  0
 20 33  1  0  0  0  0
 22 23  1  6  0  0  0
 22 28  1  0  0  0  0
 24 25  1  6  0  0  0
 24 30  1  0  0  0  0
 26 27  1  0  0  0  0
 28 29  1  1  0  0  0
 28 32  1  0  0  0  0
 30 31  1  1  0  0  0
M  END
>  <CHROM.1>
-178.07447625,-174.38308859,-124.56892835,-57.23783374,92.22266859,-176.44758792
19.88117921,27.26534275,36.36256950,-0.85593508,0.12017209,-2.43733183

>  <Name>
ligand

>  <RI>
0

>  <Rbt.Current_Directory>
/home/itssahil/PROJECTS/Mol_Feturizer/New_Systems/rnas/4p3s

>  <Rbt.Executable>
rbdock ($Id: //depot/dev/client3/rdock/2013.1/src/exe/rbdock.cxx#4 $)

>  <Rbt.Library>
libRbt.so (2013.1, Build901 2013/11/27)

>  <Rbt.Parameter_File>
/export/apps/rDock/src/rDock_2013.1_src/data/scripts/dock_solv.prm

>  <Rbt.Receptor>
prm/pocket_docking_4.prm

>  <SCORE>
-15.012

>  <SCORE.INTER>
-9.27238

>  <SCORE.INTER.CONST>
1

>  <SCORE.INTER.POLAR>
0

>  <SCORE.INTER.ROT>
6

>  <SCORE.INTER.SOLV>
14.9008

>  <SCORE.INTER.VDW>
-18.7485

>  <SCORE.INTER.norm>
-0.272717

>  <SCORE.INTRA>
-5.73962

>  <SCORE.INTRA.DIHEDRAL>
-10.3101

>  <SCORE.INTRA.DIHEDRAL.0>
15.8194

>  <SCORE.INTRA.POLAR>
0

>  <SCORE.INTRA.POLAR.0>
0

>  <SCORE.INTRA.REPUL>
0

>  <SCORE.INTRA.REPUL.0>
0

>  <SCORE.INTRA.SOLV>
-1.19903

>  <SCORE.INTRA.SOLV.lig_0>
-71.9159

>  <SCORE.INTRA.VDW>
0.0149214

>  <SCORE.INTRA.VDW.0>
-3.53918

>  <SCORE.INTRA.norm>
-0.168812

>  <SCORE.RESTR>
0

>  <SCORE.RESTR.CAVITY>
0

>  <SCORE.RESTR.norm>
0

>  <SCORE.SYSTEM>
0

>  <SCORE.SYSTEM.CONST>
0

>  <SCORE.SYSTEM.DIHEDRAL>
0

>  <SCORE.SYSTEM.SOLV>
0

>  <SCORE.SYSTEM.norm>
0

>  <SCORE.heavy>
34

>  <SCORE.norm>
-0.44153

>  <RMSD>
8.860

$$$$
ligand
 OpenBabel01301917533D
libRbt.so/2013.1/901 2013/11/27
 34 36  0  0  0  0  0  0  0  0999 V2000
   20.2271   31.2139   33.2976 C   0  0  2  0  0  0  0  0  0  0  0  0
   20.9880   30.1222   33.8244 O   0  0  0  0  0  0  0  0  0  0  0  0
   20.4463   26.7319   36.3962 C   0  0  2  0  0  0  0  0  0  0  0  0
   20.0185   25.8786   37.5131 N   0  0  0  0  0  0  0  0  0  0  0  0
   18.7958   25.7315   33.5360 C   0  0  2  0  0  0  0  0  0  0  0  0
   19.9355   30.9173   31.7784 C   0  0  2  0  0  0  0  0  0  0  0  0
   19.1946   29.6552   31.6229 N   0  0  0  0  0  0  0  0  0  0  0  0
   21.1491   27.9991   37.0039 C   0  0  0  0  0  0  0  0  0  0  0  0
   17.4866   25.0089   33.0271 C   0  0  2  0  0  0  0  0  0  0  0  0
   16.3667   25.8669   33.1622 O   0  0  0  0  0  0  0  0  0  0  0  0
   21.2702   30.8570   30.9760 C   0  0  1  0  0  0  0  0  0  0  0  0
   21.0083   30.5858   29.5866 O   0  0  0  0  0  0  0  0  0  0  0  0
   21.6228   28.9003   35.8099 C   0  0  2  0  0  0  0  0  0  0  0  0
   22.2968   30.1304   36.3148 N   0  0  0  0  0  0  0  0  0  0  0  0
   17.2811   23.7037   33.8853 C   0  0  1  0  0  0  0  0  0  0  0  0
   16.0484   22.9975   33.4821 N   0  0  0  0  0  0  0  0  0  0  0  0
   22.0137   32.2000   31.1644 C   0  0  2  0  0  0  0  0  0  0  0  0
   23.2383   32.1702   30.4245 O   0  0  0  0  0  0  0  0  0  0  0  0
   20.4154   29.3191   34.9177 C   0  0  2  0  0  0  0  0  0  0  0  0
   18.5235   22.7753   33.7044 C   0  0  1  0  0  0  0  0  0  0  0  0
   18.6156   22.4095   32.3314 O   0  0  0  0  0  0  0  0  0  0  0  0
   22.2740   32.4271   32.7158 C   0  0  2  0  0  0  0  0  0  0  0  0
   20.9972   32.4443   33.4638 O   0  0  0  0  0  0  0  0  0  0  0  0
   19.7051   28.0431   34.3897 C   0  0  2  0  0  0  0  0  0  0  0  0
   18.5879   28.4532   33.6039 O   0  0  0  0  0  0  0  0  0  0  0  0
   19.8056   23.5579   34.1349 C   0  0  0  0  0  0  0  0  0  0  0  0
   19.9470   24.8220   33.3733 O   0  0  0  0  0  0  0  0  0  0  0  0
   23.0172   33.7619   33.0098 C   0  0  2  0  0  0  0  0  0  0  0  0
   24.1947   33.8348   32.1984 O   0  0  0  0  0  0  0  0  0  0  0  0
   19.1751   27.1586   35.5452 C   0  0  1  0  0  0  0  0  0  0  0  0
   18.5537   25.9826   34.9575 O   0  0  0  0  0  0  0  0  0  0  0  0
   23.4440   33.8714   34.4570 C   0  0  0  0  0  0  0  0  0  0  0  0
   18.4090   21.4900   34.5253 C   0  0  0  0  0  0  0  0  0  0  0  0
   14.9296   23.5720   34.2689 C   0  0  0  0  0  0  0  0  0  0  0  0
  1  2  1  6  0  0  0
  1  6  1  0  0  0  0
  1 23  1  0  0  0  0
  3  4  1  1  0  0  0
  3  8  1  0  0  0  0
  3 30  1  0  0  0  0
  5  9  1  0  0  0  0
  5 27  1  0  0  0  0
  5 31  1  1  0  0  0
  6  7  1  1  0  0  0
  6 11  1  0  0  0  0
  8 13  1  0  0  0  0
  9 10  1  1  0  0  0
  9 15  1  0  0  0  0
 11 12  1  6  0  0  0
 11 17  1  0  0  0  0
 13 14  1  1  0  0  0
 13 19  1  0  0  0  0
 15 16  1  6  0  0  0
 15 20  1  0  0  0  0
 16 34  1  0  0  0  0
 17 18  1  6  0  0  0
 17 22  1  0  0  0  0
 19  2  1  6  0  0  0
 19 24  1  0  0  0  0
 20 21  1  6  0  0  0
 20 26  1  0  0  0  0
 20 33  1  0  0  0  0
 22 23  1  1  0  0  0
 22 28  1  0  0  0  0
 24 25  1  6  0  0  0
 24 30  1  0  0  0  0
 26 27  1  0  0  0  0
 28 29  1  6  0  0  0
 28 32  1  0  0  0  0
 30 31  1  6  0  0  0
M  END
>  <CHROM.1>
-118.07432247,-145.75945063,-87.40197180,-51.85674989,-102.78926713,-149.17885192
20.00159490,28.08477142,33.62545372,0.58569878,-0.98569875,-1.06784497

>  <Name>
ligand

>  <RI>
0

>  <Rbt.Current_Directory>
/home/itssahil/PROJECTS/Mol_Feturizer/New_Systems/rnas/4p3s

>  <Rbt.Executable>
rbdock ($Id: //depot/dev/client3/rdock/2013.1/src/exe/rbdock.cxx#4 $)

>  <Rbt.Library>
libRbt.so (2013.1, Build901 2013/11/27)

>  <Rbt.Parameter_File>
/export/apps/rDock/src/rDock_2013.1_src/data/scripts/dock_solv.prm

>  <Rbt.Receptor>
prm/blind_docking_80.prm

>  <SCORE>
4.00857

>  <SCORE.INTER>
-6.08676

>  <SCORE.INTER.CONST>
1

>  <SCORE.INTER.POLAR>
0

>  <SCORE.INTER.ROT>
6

>  <SCORE.INTER.SOLV>
22.4425

>  <SCORE.INTER.VDW>
-19.1387

>  <SCORE.INTER.norm>
-0.179022

>  <SCORE.INTRA>
8.86687

>  <SCORE.INTRA.DIHEDRAL>
6.08331

>  <SCORE.INTRA.DIHEDRAL.0>
15.8194

>  <SCORE.INTRA.POLAR>
0

>  <SCORE.INTRA.POLAR.0>
0

>  <SCORE.INTRA.REPUL>
0

>  <SCORE.INTRA.REPUL.0>
0

>  <SCORE.INTRA.SOLV>
1.80809

>  <SCORE.INTRA.SOLV.lig_0>
-71.9159

>  <SCORE.INTRA.VDW>
4.92117

>  <SCORE.INTRA.VDW.0>
-3.53918

>  <SCORE.INTRA.norm>
0.26079

>  <SCORE.RESTR>
1.22847

>  <SCORE.RESTR.CAVITY>
1.22847

>  <SCORE.RESTR.norm>
0.0361313

>  <SCORE.SYSTEM>
0

>  <SCORE.SYSTEM.CONST>
0

>  <SCORE.SYSTEM.DIHEDRAL>
0

>  <SCORE.SYSTEM.SOLV>
0

>  <SCORE.SYSTEM.norm>
0

>  <SCORE.heavy>
34

>  <SCORE.norm>
0.117899

>  <RMSD>
8.862

$$$$
ligand
 OpenBabel01301917533D
libRbt.so/2013.1/901 2013/11/27
 34 36  0  0  0  0  0  0  0  0999 V2000
   20.3427   35.8885   30.4715 C   0  0  2  0  0  0  0  0  0  0  0  0
   20.2303   35.5517   31.8579 O   0  0  0  0  0  0  0  0  0  0  0  0
   22.4042   32.6873   34.1970 C   0  0  2  0  0  0  0  0  0  0  0  0
   23.5019   31.9434   34.8298 N   0  0  0  0  0  0  0  0  0  0  0  0
   22.5931   35.2245   37.0258 C   0  0  2  0  0  0  0  0  0  0  0  0
   21.2948   37.1370   30.3482 C   0  0  2  0  0  0  0  0  0  0  0  0
   22.6219   36.8428   30.9123 N   0  0  0  0  0  0  0  0  0  0  0  0
   22.6756   32.7168   32.6496 C   0  0  0  0  0  0  0  0  0  0  0  0
   23.8530   34.6190   37.7616 C   0  0  2  0  0  0  0  0  0  0  0  0
   24.8408   34.2431   36.8175 O   0  0  0  0  0  0  0  0  0  0  0  0
   20.6664   38.3666   31.0709 C   0  0  1  0  0  0  0  0  0  0  0  0
   21.5337   39.5103   30.9609 O   0  0  0  0  0  0  0  0  0  0  0  0
   21.4928   33.4947   31.9727 C   0  0  2  0  0  0  0  0  0  0  0  0
   21.6879   33.5675   30.4966 N   0  0  0  0  0  0  0  0  0  0  0  0
   23.3820   33.3634   38.5887 C   0  0  1  0  0  0  0  0  0  0  0  0
   24.5243   32.7265   39.2746 N   0  0  0  0  0  0  0  0  0  0  0  0
   19.2780   38.6418   30.4474 C   0  0  2  0  0  0  0  0  0  0  0  0
   18.6880   39.7764   31.0895 O   0  0  0  0  0  0  0  0  0  0  0  0
   21.3864   34.9436   32.5375 C   0  0  2  0  0  0  0  0  0  0  0  0
   22.3059   33.8128   39.6271 C   0  0  1  0  0  0  0  0  0  0  0  0
   22.9039   34.7487   40.5181 O   0  0  0  0  0  0  0  0  0  0  0  0
   18.3768   37.3431   30.6124 C   0  0  2  0  0  0  0  0  0  0  0  0
   19.0089   36.1798   29.9511 O   0  0  0  0  0  0  0  0  0  0  0  0
   21.1861   34.8773   34.0759 C   0  0  2  0  0  0  0  0  0  0  0  0
   21.1235   36.2135   34.5706 O   0  0  0  0  0  0  0  0  0  0  0  0
   21.1190   34.4853   38.8652 C   0  0  0  0  0  0  0  0  0  0  0  0
   21.5863   35.6182   38.0309 O   0  0  0  0  0  0  0  0  0  0  0  0
   16.9540   37.5201   30.0087 C   0  0  2  0  0  0  0  0  0  0  0  0
   16.1744   36.3520   30.2877 O   0  0  0  0  0  0  0  0  0  0  0  0
   22.3663   34.1639   34.7806 C   0  0  1  0  0  0  0  0  0  0  0  0
   22.0783   34.1271   36.2055 O   0  0  0  0  0  0  0  0  0  0  0  0
   16.9893   37.7062   28.5077 C   0  0  0  0  0  0  0  0  0  0  0  0
   21.7816   32.6419   40.4595 C   0  0  0  0  0  0  0  0  0  0  0  0
   24.4153   31.2635   39.0546 C   0  0  0  0  0  0  0  0  0  0  0  0
  1  2  1  1  0  0  0
  1  6  1  0  0  0  0
  1 23  1  0  0  0  0
  3  4  1  1  0  0  0
  3  8  1  0  0  0  0
  3 30  1  0  0  0  0
  5  9  1  0  0  0  0
  5 27  1  0  0  0  0
  5 31  1  6  0  0  0
  6  7  1  1  0  0  0
  6 11  1  0  0  0  0
  8 13  1  0  0  0  0
  9 10  1  6  0  0  0
  9 15  1  0  0  0  0
 11 12  1  6  0  0  0
 11 17  1  0  0  0  0
 13 14  1  6  0  0  0
 13 19  1  0  0  0  0
 15 16  1  1  0  0  0
 15 20  1  0  0  0  0
 16 34  1  0  0  0  0
 17 18  1  1  0  0  0
 17 22  1  0  0  0  0
 19  2  1  6  0  0  0
 19 24  1  0  0  0  0
 20 21  1  1  0  0  0
 20 26  1  0  0  0  0
 20 33  1  0  0  0  0
 22 23  1  6  0  0  0
 22 28  1  0  0  0  0
 24 25  1  1  0  0  0
 24 30  1  0  0  0  0
 26 27  1  0  0  0  0
 28 29  1  6  0  0  0
 28 32  1  0  0  0  0
 30 31  1  1  0  0  0
M  END
>  <CHROM.1>
-71.76059334,-71.46227331,-134.36409287,-175.55790887,152.11696105,-102.85945805
21.31364304,35.27188817,34.09866554,-2.29995030,-0.91177241,1.39500952

>  <Name>
ligand

>  <RI>
0

>  <Rbt.Current_Directory>
/home/itssahil/PROJECTS/Mol_Feturizer/New_Systems/rnas/4p3s

>  <Rbt.Executable>
rbdock ($Id: //depot/dev/client3/rdock/2013.1/src/exe/rbdock.cxx#4 $)

>  <Rbt.Library>
libRbt.so (2013.1, Build901 2013/11/27)

>  <Rbt.Parameter_File>
/export/apps/rDock/src/rDock_2013.1_src/data/scripts/dock_solv.prm

>  <Rbt.Receptor>
prm/blind_docking_60.prm

>  <SCORE>
5.01855

>  <SCORE.INTER>
-1.78433

>  <SCORE.INTER.CONST>
1

>  <SCORE.INTER.POLAR>
0

>  <SCORE.INTER.ROT>
6

>  <SCORE.INTER.SOLV>
19.7623

>  <SCORE.INTER.VDW>
-15.377

>  <SCORE.INTER.norm>
-0.0524804

>  <SCORE.INTRA>
1.55609

>  <SCORE.INTRA.DIHEDRAL>
-4.34973

>  <SCORE.INTRA.DIHEDRAL.0>
15.8194

>  <SCORE.INTRA.POLAR>
0

>  <SCORE.INTRA.POLAR.0>
0

>  <SCORE.INTRA.REPUL>
0

>  <SCORE.INTRA.REPUL.0>
0

>  <SCORE.INTRA.SOLV>
3.823

>  <SCORE.INTRA.SOLV.lig_0>
-71.9159

>  <SCORE.INTRA.VDW>
1.81945

>  <SCORE.INTRA.VDW.0>
-3.53918

>  <SCORE.INTRA.norm>
0.0457673

>  <SCORE.RESTR>
5.2468

>  <SCORE.RESTR.CAVITY>
5.2468

>  <SCORE.RESTR.norm>
0.154318

>  <SCORE.SYSTEM>
0

>  <SCORE.SYSTEM.CONST>
0

>  <SCORE.SYSTEM.DIHEDRAL>
0

>  <SCORE.SYSTEM.SOLV>
0

>  <SCORE.SYSTEM.norm>
0

>  <SCORE.heavy>
34

>  <SCORE.norm>
0.147605

>  <RMSD>
8.865

$$$$
ligand
 OpenBabel01301917533D
libRbt.so/2013.1/901 2013/11/27
 34 36  0  0  0  0  0  0  0  0999 V2000
   22.2001   27.4681   37.6621 C   0  0  2  0  0  0  0  0  0  0  0  0
   21.0092   27.7826   38.3908 O   0  0  0  0  0  0  0  0  0  0  0  0
   16.8636   27.7033   37.2906 C   0  0  2  0  0  0  0  0  0  0  0  0
   15.5727   28.0472   36.6793 N   0  0  0  0  0  0  0  0  0  0  0  0
   16.5641   26.2502   34.3014 C   0  0  2  0  0  0  0  0  0  0  0  0
   23.3172   27.0733   38.6999 C   0  0  2  0  0  0  0  0  0  0  0  0
   22.8953   25.9209   39.5122 N   0  0  0  0  0  0  0  0  0  0  0  0
   17.3901   28.9768   38.0456 C   0  0  0  0  0  0  0  0  0  0  0  0
   16.1958   24.7828   33.8469 C   0  0  2  0  0  0  0  0  0  0  0  0
   15.4457   24.1287   34.8559 O   0  0  0  0  0  0  0  0  0  0  0  0
   23.6483   28.2857   39.6216 C   0  0  1  0  0  0  0  0  0  0  0  0
   24.6690   27.9291   40.5721 O   0  0  0  0  0  0  0  0  0  0  0  0
   18.7595   28.6027   38.7143 C   0  0  2  0  0  0  0  0  0  0  0  0
   19.3235   29.7719   39.4472 N   0  0  0  0  0  0  0  0  0  0  0  0
   17.5369   24.0031   33.5714 C   0  0  1  0  0  0  0  0  0  0  0  0
   17.2622   22.6071   33.1758 N   0  0  0  0  0  0  0  0  0  0  0  0
   24.0883   29.4704   38.7301 C   0  0  2  0  0  0  0  0  0  0  0  0
   24.4091   30.5921   39.5589 O   0  0  0  0  0  0  0  0  0  0  0  0
   19.7910   28.1361   37.6430 C   0  0  2  0  0  0  0  0  0  0  0  0
   18.3321   24.7402   32.4477 C   0  0  1  0  0  0  0  0  0  0  0  0
   17.5462   24.7311   31.2605 O   0  0  0  0  0  0  0  0  0  0  0  0
   22.9132   29.8110   37.7156 C   0  0  2  0  0  0  0  0  0  0  0  0
   22.5897   28.6362   36.8757 O   0  0  0  0  0  0  0  0  0  0  0  0
   19.2100   26.9197   36.8720 C   0  0  2  0  0  0  0  0  0  0  0  0
   20.1578   26.5331   35.8791 O   0  0  0  0  0  0  0  0  0  0  0  0
   18.5981   26.2121   32.8998 C   0  0  0  0  0  0  0  0  0  0  0  0
   17.3334   26.9120   33.2294 O   0  0  0  0  0  0  0  0  0  0  0  0
   23.2638   30.9934   36.7673 C   0  0  2  0  0  0  0  0  0  0  0  0
   23.6009   32.1430   37.5515 O   0  0  0  0  0  0  0  0  0  0  0  0
   17.8847   27.2727   36.1528 C   0  0  1  0  0  0  0  0  0  0  0  0
   17.4065   26.0727   35.4851 O   0  0  0  0  0  0  0  0  0  0  0  0
   22.1055   31.3684   35.8692 C   0  0  0  0  0  0  0  0  0  0  0  0
   19.6620   24.0529   32.1349 C   0  0  0  0  0  0  0  0  0  0  0  0
   17.9350   21.7254   34.1611 C   0  0  0  0  0  0  0  0  0  0  0  0
  1  2  1  1  0  0  0
  1  6  1  0  0  0  0
  1 23  1  0  0  0  0
  3  4  1  6  0  0  0
  3  8  1  0  0  0  0
  3 30  1  0  0  0  0
  5  9  1  0  0  0  0
  5 27  1  0  0  0  0
  5 31  1  1  0  0  0
  6  7  1  1  0  0  0
  6 11  1  0  0  0  0
  8 13  1  0  0  0  0
  9 10  1  1  0  0  0
  9 15  1  0  0  0  0
 11 12  1  1  0  0  0
 11 17  1  0  0  0  0
 13 14  1  6  0  0  0
 13 19  1  0  0  0  0
 15 16  1  6  0  0  0
 15 20  1  0  0  0  0
 16 34  1  0  0  0  0
 17 18  1  1  0  0  0
 17 22  1  0  0  0  0
 19  2  1  1  0  0  0
 19 24  1  0  0  0  0
 20 21  1  6  0  0  0
 20 26  1  0  0  0  0
 20 33  1  0  0  0  0
 22 23  1  6  0  0  0
 22 28  1  0  0  0  0
 24 25  1  6  0  0  0
 24 30  1  0  0  0  0
 26 27  1  0  0  0  0
 28 29  1  1  0  0  0
 28 32  1  0  0  0  0
 30 31  1  1  0  0  0
M  END
>  <CHROM.1>
-177.67316328,-172.48474806,-120.86230889,-56.68297863,91.32664596,-178.73745369
19.88775949,27.22758260,36.32621014,-0.85674928,0.15741689,-2.47110863

>  <Name>
ligand

>  <RI>
0

>  <Rbt.Current_Directory>
/home/itssahil/PROJECTS/Mol_Feturizer/New_Systems/rnas/4p3s

>  <Rbt.Executable>
rbdock ($Id: //depot/dev/client3/rdock/2013.1/src/exe/rbdock.cxx#4 $)

>  <Rbt.Library>
libRbt.so (2013.1, Build901 2013/11/27)

>  <Rbt.Parameter_File>
/export/apps/rDock/src/rDock_2013.1_src/data/scripts/dock_solv.prm

>  <Rbt.Receptor>
prm/pocket_docking_4.prm

>  <SCORE>
-14.9546

>  <SCORE.INTER>
-9.06798

>  <SCORE.INTER.CONST>
1

>  <SCORE.INTER.POLAR>
0

>  <SCORE.INTER.ROT>
6

>  <SCORE.INTER.SOLV>
15.0983

>  <SCORE.INTER.VDW>
-18.6781

>  <SCORE.INTER.norm>
-0.266705

>  <SCORE.INTRA>
-5.88666

>  <SCORE.INTRA.DIHEDRAL>
-10.3703

>  <SCORE.INTRA.DIHEDRAL.0>
15.8194

>  <SCORE.INTRA.POLAR>
0

>  <SCORE.INTRA.POLAR.0>
0

>  <SCORE.INTRA.REPUL>
0

>  <SCORE.INTRA.REPUL.0>
0

>  <SCORE.INTRA.SOLV>
-1.14283

>  <SCORE.INTRA.SOLV.lig_0>
-71.9159

>  <SCORE.INTRA.VDW>
-0.130092

>  <SCORE.INTRA.VDW.0>
-3.53918

>  <SCORE.INTRA.norm>
-0.173137

>  <SCORE.RESTR>
0

>  <SCORE.RESTR.CAVITY>
0

>  <SCORE.RESTR.norm>
0

>  <SCORE.SYSTEM>
0

>  <SCORE.SYSTEM.CONST>
0

>  <SCORE.SYSTEM.DIHEDRAL>
0

>  <SCORE.SYSTEM.SOLV>
0

>  <SCORE.SYSTEM.norm>
0

>  <SCORE.heavy>
34

>  <SCORE.norm>
-0.439842

>  <RMSD>
8.873

$$$$
ligand
 OpenBabel01301917533D
libRbt.so/2013.1/901 2013/11/27
 34 36  0  0  0  0  0  0  0  0999 V2000
   20.0997   35.8485   30.8948 C   0  0  2  0  0  0  0  0  0  0  0  0
   20.7735   34.7320   30.3051 O   0  0  0  0  0  0  0  0  0  0  0  0
   20.8715   31.8603   33.4904 C   0  0  2  0  0  0  0  0  0  0  0  0
   21.2898   30.7565   34.3651 N   0  0  0  0  0  0  0  0  0  0  0  0
   23.1895   34.1614   35.4360 C   0  0  2  0  0  0  0  0  0  0  0  0
   18.7816   36.1120   30.0739 C   0  0  2  0  0  0  0  0  0  0  0  0
   17.9109   34.9255   30.0839 N   0  0  0  0  0  0  0  0  0  0  0  0
   20.8174   31.3110   32.0191 C   0  0  0  0  0  0  0  0  0  0  0  0
   23.9158   32.9920   36.2107 C   0  0  2  0  0  0  0  0  0  0  0  0
   24.2165   31.9272   35.3251 O   0  0  0  0  0  0  0  0  0  0  0  0
   19.1308   36.5075   28.6074 C   0  0  1  0  0  0  0  0  0  0  0  0
   17.9286   36.7491   27.8533 O   0  0  0  0  0  0  0  0  0  0  0  0
   20.3518   32.4855   31.0885 C   0  0  2  0  0  0  0  0  0  0  0  0
   20.2833   32.0357   29.6688 N   0  0  0  0  0  0  0  0  0  0  0  0
   22.9579   32.4940   37.3582 C   0  0  1  0  0  0  0  0  0  0  0  0
   23.5656   31.3716   38.1009 N   0  0  0  0  0  0  0  0  0  0  0  0
   20.0423   37.7565   28.6429 C   0  0  2  0  0  0  0  0  0  0  0  0
   20.3653   38.1441   27.3038 O   0  0  0  0  0  0  0  0  0  0  0  0
   21.3325   33.6930   31.1862 C   0  0  2  0  0  0  0  0  0  0  0  0
   22.6575   33.6849   38.3225 C   0  0  1  0  0  0  0  0  0  0  0  0
   23.8843   34.1125   38.9050 O   0  0  0  0  0  0  0  0  0  0  0  0
   21.3475   37.4133   29.4825 C   0  0  2  0  0  0  0  0  0  0  0  0
   20.9916   37.0051   30.8598 O   0  0  0  0  0  0  0  0  0  0  0  0
   21.4126   34.1663   32.6630 C   0  0  2  0  0  0  0  0  0  0  0  0
   22.3382   35.2490   32.7297 O   0  0  0  0  0  0  0  0  0  0  0  0
   22.0220   34.8521   37.5007 C   0  0  0  0  0  0  0  0  0  0  0  0
   22.8990   35.2607   36.3773 O   0  0  0  0  0  0  0  0  0  0  0  0
   22.3306   38.6151   29.5801 C   0  0  2  0  0  0  0  0  0  0  0  0
   22.0856   39.5145   28.4932 O   0  0  0  0  0  0  0  0  0  0  0  0
   21.9238   33.0447   33.6007 C   0  0  1  0  0  0  0  0  0  0  0  0
   21.9395   33.5700   34.9566 O   0  0  0  0  0  0  0  0  0  0  0  0
   23.7768   38.1779   29.5031 C   0  0  0  0  0  0  0  0  0  0  0  0
   21.7136   33.2854   39.4575 C   0  0  0  0  0  0  0  0  0  0  0  0
   23.0933   30.1143   37.4709 C   0  0  0  0  0  0  0  0  0  0  0  0
  1  2  1  6  0  0  0
  1  6  1  0  0  0  0
  1 23  1  0  0  0  0
  3  4  1  1  0  0  0
  3  8  1  0  0  0  0
  3 30  1  0  0  0  0
  5  9  1  0  0  0  0
  5 27  1  0  0  0  0
  5 31  1  1  0  0  0
  6  7  1  6  0  0  0
  6 11  1  0  0  0  0
  8 13  1  0  0  0  0
  9 10  1  6  0  0  0
  9 15  1  0  0  0  0
 11 12  1  6  0  0  0
 11 17  1  0  0  0  0
 13 14  1  6  0  0  0
 13 19  1  0  0  0  0
 15 16  1  1  0  0  0
 15 20  1  0  0  0  0
 16 34  1  0  0  0  0
 17 18  1  6  0  0  0
 17 22  1  0  0  0  0
 19  2  1  6  0  0  0
 19 24  1  0  0  0  0
 20 21  1  1  0  0  0
 20 26  1  0  0  0  0
 20 33  1  0  0  0  0
 22 23  1  1  0  0  0
 22 28  1  0  0  0  0
 24 25  1  6  0  0  0
 24 30  1  0  0  0  0
 26 27  1  0  0  0  0
 28 29  1  6  0  0  0
 28 32  1  0  0  0  0
 30 31  1  1  0  0  0
M  END
>  <CHROM.1>
-135.90750669,103.96518291,-92.91783259,-22.65723720,151.44094006,-95.19882342
21.55658951,34.56403350,32.87522804,2.08331992,-1.00689084,-0.63876565

>  <Name>
ligand

>  <RI>
0

>  <Rbt.Current_Directory>
/home/itssahil/PROJECTS/Mol_Feturizer/New_Systems/rnas/4p3s

>  <Rbt.Executable>
rbdock ($Id: //depot/dev/client3/rdock/2013.1/src/exe/rbdock.cxx#4 $)

>  <Rbt.Library>
libRbt.so (2013.1, Build901 2013/11/27)

>  <Rbt.Parameter_File>
/export/apps/rDock/src/rDock_2013.1_src/data/scripts/dock_solv.prm

>  <Rbt.Receptor>
prm/blind_docking_100.prm

>  <SCORE>
7.55067

>  <SCORE.INTER>
-1.123

>  <SCORE.INTER.CONST>
1

>  <SCORE.INTER.POLAR>
0

>  <SCORE.INTER.ROT>
6

>  <SCORE.INTER.SOLV>
9.59554

>  <SCORE.INTER.VDW>
-11.5472

>  <SCORE.INTER.norm>
-0.0330295

>  <SCORE.INTRA>
7.16898

>  <SCORE.INTRA.DIHEDRAL>
8.52367

>  <SCORE.INTRA.DIHEDRAL.0>
15.8194

>  <SCORE.INTRA.POLAR>
0

>  <SCORE.INTRA.POLAR.0>
0

>  <SCORE.INTRA.REPUL>
0

>  <SCORE.INTRA.REPUL.0>
0

>  <SCORE.INTRA.SOLV>
2.25326

>  <SCORE.INTRA.SOLV.lig_0>
-71.9159

>  <SCORE.INTRA.VDW>
1.78052

>  <SCORE.INTRA.VDW.0>
-3.53918

>  <SCORE.INTRA.norm>
0.210852

>  <SCORE.RESTR>
1.50469

>  <SCORE.RESTR.CAVITY>
1.50469

>  <SCORE.RESTR.norm>
0.0442557

>  <SCORE.SYSTEM>
0

>  <SCORE.SYSTEM.CONST>
0

>  <SCORE.SYSTEM.DIHEDRAL>
0

>  <SCORE.SYSTEM.SOLV>
0

>  <SCORE.SYSTEM.norm>
0

>  <SCORE.heavy>
34

>  <SCORE.norm>
0.222079

>  <RMSD>
8.880

$$$$
ligand
 OpenBabel01301917533D
libRbt.so/2013.1/901 2013/11/27
 34 36  0  0  0  0  0  0  0  0999 V2000
   19.8894   37.0349   31.6096 C   0  0  2  0  0  0  0  0  0  0  0  0
   20.8574   36.1460   32.1763 O   0  0  0  0  0  0  0  0  0  0  0  0
   22.1356   35.9909   36.2682 C   0  0  2  0  0  0  0  0  0  0  0  0
   22.1341   35.8238   37.7279 N   0  0  0  0  0  0  0  0  0  0  0  0
   22.6039   32.2456   36.0227 C   0  0  2  0  0  0  0  0  0  0  0  0
   18.7737   36.1644   30.9179 C   0  0  2  0  0  0  0  0  0  0  0  0
   18.1337   35.2631   31.8894 N   0  0  0  0  0  0  0  0  0  0  0  0
   20.9955   37.0083   35.9019 C   0  0  0  0  0  0  0  0  0  0  0  0
   21.7164   32.1626   37.3268 C   0  0  2  0  0  0  0  0  0  0  0  0
   20.5255   32.9126   37.1603 O   0  0  0  0  0  0  0  0  0  0  0  0
   19.3843   35.3404   29.7444 C   0  0  1  0  0  0  0  0  0  0  0  0
   18.3678   34.5430   29.1094 O   0  0  0  0  0  0  0  0  0  0  0  0
   21.0106   37.2010   34.3447 C   0  0  2  0  0  0  0  0  0  0  0  0
   19.9451   38.1543   33.9225 N   0  0  0  0  0  0  0  0  0  0  0  0
   22.5576   32.7336   38.5303 C   0  0  1  0  0  0  0  0  0  0  0  0
   21.7684   32.7177   39.7784 N   0  0  0  0  0  0  0  0  0  0  0  0
   20.0425   36.3238   28.7486 C   0  0  2  0  0  0  0  0  0  0  0  0
   20.5996   35.5872   27.6554 O   0  0  0  0  0  0  0  0  0  0  0  0
   20.7865   35.8419   33.6152 C   0  0  2  0  0  0  0  0  0  0  0  0
   23.8538   31.8787   38.6957 C   0  0  1  0  0  0  0  0  0  0  0  0
   23.4743   30.5401   38.9981 O   0  0  0  0  0  0  0  0  0  0  0  0
   21.1546   37.1608   29.5159 C   0  0  2  0  0  0  0  0  0  0  0  0
   20.5606   37.9062   30.6479 O   0  0  0  0  0  0  0  0  0  0  0  0
   21.8907   34.8411   34.0518 C   0  0  2  0  0  0  0  0  0  0  0  0
   21.6448   33.5990   33.3958 O   0  0  0  0  0  0  0  0  0  0  0  0
   24.6572   31.9155   37.3560 C   0  0  0  0  0  0  0  0  0  0  0  0
   23.8301   31.4475   36.2180 O   0  0  0  0  0  0  0  0  0  0  0  0
   21.8748   38.1868   28.5945 C   0  0  2  0  0  0  0  0  0  0  0  0
   22.5647   37.4842   27.5550 O   0  0  0  0  0  0  0  0  0  0  0  0
   21.8659   34.5857   35.5791 C   0  0  1  0  0  0  0  0  0  0  0  0
   22.9449   33.6631   35.8943 O   0  0  0  0  0  0  0  0  0  0  0  0
   22.8918   39.0156   29.3477 C   0  0  0  0  0  0  0  0  0  0  0  0
   24.7380   32.3845   39.8364 C   0  0  0  0  0  0  0  0  0  0  0  0
   21.6033   34.1250   40.2178 C   0  0  0  0  0  0  0  0  0  0  0  0
  1  2  1  6  0  0  0
  1  6  1  0  0  0  0
  1 23  1  0  0  0  0
  3  4  1  1  0  0  0
  3  8  1  0  0  0  0
  3 30  1  0  0  0  0
  5  9  1  0  0  0  0
  5 27  1  0  0  0  0
  5 31  1  1  0  0  0
  6  7  1  1  0  0  0
  6 11  1  0  0  0  0
  8 13  1  0  0  0  0
  9 10  1  6  0  0  0
  9 15  1  0  0  0  0
 11 12  1  6  0  0  0
 11 17  1  0  0  0  0
 13 14  1  1  0  0  0
 13 19  1  0  0  0  0
 15 16  1  1  0  0  0
 15 20  1  0  0  0  0
 16 34  1  0  0  0  0
 17 18  1  6  0  0  0
 17 22  1  0  0  0  0
 19  2  1  6  0  0  0
 19 24  1  0  0  0  0
 20 21  1  1  0  0  0
 20 26  1  0  0  0  0
 20 33  1  0  0  0  0
 22 23  1  1  0  0  0
 22 28  1  0  0  0  0
 24 25  1  6  0  0  0
 24 30  1  0  0  0  0
 26 27  1  0  0  0  0
 28 29  1  6  0  0  0
 28 32  1  0  0  0  0
 30 31  1  6  0  0  0
M  END
>  <CHROM.1>
-99.07594150,-62.49381649,-116.94245903,-62.76603327,147.19407349,-67.99588365
21.53535732,34.91663563,34.04138268,2.33895319,1.23305406,-1.86297958

>  <Name>
ligand

>  <RI>
0

>  <Rbt.Current_Directory>
/home/itssahil/PROJECTS/Mol_Feturizer/New_Systems/rnas/4p3s

>  <Rbt.Executable>
rbdock ($Id: //depot/dev/client3/rdock/2013.1/src/exe/rbdock.cxx#4 $)

>  <Rbt.Library>
libRbt.so (2013.1, Build901 2013/11/27)

>  <Rbt.Parameter_File>
/export/apps/rDock/src/rDock_2013.1_src/data/scripts/dock_solv.prm

>  <Rbt.Receptor>
prm/blind_docking_60.prm

>  <SCORE>
30.1821

>  <SCORE.INTER>
5.36598

>  <SCORE.INTER.CONST>
1

>  <SCORE.INTER.POLAR>
0

>  <SCORE.INTER.ROT>
6

>  <SCORE.INTER.SOLV>
9.53952

>  <SCORE.INTER.VDW>
-7.20252

>  <SCORE.INTER.norm>
0.157823

>  <SCORE.INTRA>
2.41038

>  <SCORE.INTRA.DIHEDRAL>
-4.85668

>  <SCORE.INTRA.DIHEDRAL.0>
15.8194

>  <SCORE.INTRA.POLAR>
0

>  <SCORE.INTRA.POLAR.0>
0

>  <SCORE.INTRA.REPUL>
0

>  <SCORE.INTRA.REPUL.0>
0

>  <SCORE.INTRA.SOLV>
4.82878

>  <SCORE.INTRA.SOLV.lig_0>
-71.9159

>  <SCORE.INTRA.VDW>
2.42433

>  <SCORE.INTRA.VDW.0>
-3.53918

>  <SCORE.INTRA.norm>
0.0708935

>  <SCORE.RESTR>
22.4058

>  <SCORE.RESTR.CAVITY>
22.4058

>  <SCORE.RESTR.norm>
0.658993

>  <SCORE.SYSTEM>
0

>  <SCORE.SYSTEM.CONST>
0

>  <SCORE.SYSTEM.DIHEDRAL>
0

>  <SCORE.SYSTEM.SOLV>
0

>  <SCORE.SYSTEM.norm>
0

>  <SCORE.heavy>
34

>  <SCORE.norm>
0.88771

>  <RMSD>
8.890

$$$$
ligand
 OpenBabel01301917533D
libRbt.so/2013.1/901 2013/11/27
 34 36  0  0  0  0  0  0  0  0999 V2000
   22.1771   27.8517   37.6525 C   0  0  2  0  0  0  0  0  0  0  0  0
   20.9583   27.8851   38.4018 O   0  0  0  0  0  0  0  0  0  0  0  0
   16.7871   27.6704   37.4234 C   0  0  2  0  0  0  0  0  0  0  0  0
   15.4646   27.9812   36.8638 N   0  0  0  0  0  0  0  0  0  0  0  0
   16.5056   26.3151   34.3558 C   0  0  2  0  0  0  0  0  0  0  0  0
   23.3156   27.3100   38.5966 C   0  0  2  0  0  0  0  0  0  0  0  0
   22.9865   25.9661   39.0981 N   0  0  0  0  0  0  0  0  0  0  0  0
   17.2843   28.9375   38.2085 C   0  0  0  0  0  0  0  0  0  0  0  0
   16.1202   24.8518   33.9024 C   0  0  2  0  0  0  0  0  0  0  0  0
   15.3565   24.2097   34.9089 O   0  0  0  0  0  0  0  0  0  0  0  0
   23.5358   28.2878   39.7900 C   0  0  1  0  0  0  0  0  0  0  0  0
   24.5757   27.7964   40.6557 O   0  0  0  0  0  0  0  0  0  0  0  0
   18.6881   28.5979   38.8220 C   0  0  2  0  0  0  0  0  0  0  0  0
   19.2264   29.7632   39.5801 N   0  0  0  0  0  0  0  0  0  0  0  0
   17.4522   24.0538   33.6352 C   0  0  1  0  0  0  0  0  0  0  0  0
   17.1610   22.6607   33.2411 N   0  0  0  0  0  0  0  0  0  0  0  0
   23.8809   29.6835   39.2198 C   0  0  2  0  0  0  0  0  0  0  0  0
   24.0993   30.5951   40.3011 O   0  0  0  0  0  0  0  0  0  0  0  0
   19.7038   28.2132   37.7041 C   0  0  2  0  0  0  0  0  0  0  0  0
   18.2627   24.7780   32.5141 C   0  0  1  0  0  0  0  0  0  0  0  0
   17.4827   24.7768   31.3229 O   0  0  0  0  0  0  0  0  0  0  0  0
   22.6889   30.1624   38.2838 C   0  0  2  0  0  0  0  0  0  0  0  0
   22.4725   29.2019   37.1790 O   0  0  0  0  0  0  0  0  0  0  0  0
   19.1494   27.0015   36.9067 C   0  0  2  0  0  0  0  0  0  0  0  0
   20.0807   26.6905   35.8726 O   0  0  0  0  0  0  0  0  0  0  0  0
   18.5459   26.2472   32.9646 C   0  0  0  0  0  0  0  0  0  0  0  0
   17.2889   26.9644   33.2864 O   0  0  0  0  0  0  0  0  0  0  0  0
   22.9455   31.5624   37.6555 C   0  0  2  0  0  0  0  0  0  0  0  0
   21.8125   31.9399   36.8657 O   0  0  0  0  0  0  0  0  0  0  0  0
   17.7888   27.3237   36.2408 C   0  0  1  0  0  0  0  0  0  0  0  0
   17.3395   26.1290   35.5440 O   0  0  0  0  0  0  0  0  0  0  0  0
   24.1614   31.5704   36.7554 C   0  0  0  0  0  0  0  0  0  0  0  0
   19.5850   24.0725   32.2094 C   0  0  0  0  0  0  0  0  0  0  0  0
   17.9081   21.7722   34.1648 C   0  0  0  0  0  0  0  0  0  0  0  0
  1  2  1  1  0  0  0
  1  6  1  0  0  0  0
  1 23  1  0  0  0  0
  3  4  1  6  0  0  0
  3  8  1  0  0  0  0
  3 30  1  0  0  0  0
  5  9  1  0  0  0  0
  5 27  1  0  0  0  0
  5 31  1  1  0  0  0
  6  7  1  1  0  0  0
  6 11  1  0  0  0  0
  8 13  1  0  0  0  0
  9 10  1  1  0  0  0
  9 15  1  0  0  0  0
 11 12  1  1  0  0  0
 11 17  1  0  0  0  0
 13 14  1  6  0  0  0
 13 19  1  0  0  0  0
 15 16  1  6  0  0  0
 15 20  1  0  0  0  0
 16 34  1  0  0  0  0
 17 18  1  1  0  0  0
 17 22  1  0  0  0  0
 19  2  1  1  0  0  0
 19 24  1  0  0  0  0
 20 21  1  6  0  0  0
 20 26  1  0  0  0  0
 20 33  1  0  0  0  0
 22 23  1  6  0  0  0
 22 28  1  0  0  0  0
 24 25  1  6  0  0  0
 24 30  1  0  0  0  0
 26 27  1  0  0  0  0
 28 29  1  6  0  0  0
 28 32  1  0  0  0  0
 30 31  1  1  0  0  0
M  END
>  <CHROM.1>
-173.24182088,-162.87440902,-125.42781287,-178.10214565,94.13911255,-176.49456950
19.80621178,27.31843627,36.45602865,-0.87603811,0.14263514,-2.45034174

>  <Name>
ligand

>  <RI>
0

>  <Rbt.Current_Directory>
/home/itssahil/PROJECTS/Mol_Feturizer/New_Systems/rnas/4p3s

>  <Rbt.Executable>
rbdock ($Id: //depot/dev/client3/rdock/2013.1/src/exe/rbdock.cxx#4 $)

>  <Rbt.Library>
libRbt.so (2013.1, Build901 2013/11/27)

>  <Rbt.Parameter_File>
/export/apps/rDock/src/rDock_2013.1_src/data/scripts/dock_solv.prm

>  <Rbt.Receptor>
prm/pocket_docking_4.prm

>  <SCORE>
-13.7575

>  <SCORE.INTER>
-9.0543

>  <SCORE.INTER.CONST>
1

>  <SCORE.INTER.POLAR>
0

>  <SCORE.INTER.ROT>
6

>  <SCORE.INTER.SOLV>
14.4954

>  <SCORE.INTER.VDW>
-18.468

>  <SCORE.INTER.norm>
-0.266303

>  <SCORE.INTRA>
-4.7032

>  <SCORE.INTRA.DIHEDRAL>
-8.58458

>  <SCORE.INTRA.DIHEDRAL.0>
15.8194

>  <SCORE.INTRA.POLAR>
0

>  <SCORE.INTRA.POLAR.0>
0

>  <SCORE.INTRA.REPUL>
0

>  <SCORE.INTRA.REPUL.0>
0

>  <SCORE.INTRA.SOLV>
-1.01078

>  <SCORE.INTRA.SOLV.lig_0>
-71.9159

>  <SCORE.INTRA.VDW>
0.0944727

>  <SCORE.INTRA.VDW.0>
-3.53918

>  <SCORE.INTRA.norm>
-0.13833

>  <SCORE.RESTR>
0

>  <SCORE.RESTR.CAVITY>
0

>  <SCORE.RESTR.norm>
0

>  <SCORE.SYSTEM>
0

>  <SCORE.SYSTEM.CONST>
0

>  <SCORE.SYSTEM.DIHEDRAL>
0

>  <SCORE.SYSTEM.SOLV>
0

>  <SCORE.SYSTEM.norm>
0

>  <SCORE.heavy>
34

>  <SCORE.norm>
-0.404632

>  <RMSD>
8.910

$$$$
ligand
 OpenBabel01301917533D
libRbt.so/2013.1/901 2013/11/27
 34 36  0  0  0  0  0  0  0  0999 V2000
   18.1560   36.5585   32.3605 C   0  0  2  0  0  0  0  0  0  0  0  0
   18.9230   35.4050   32.0011 O   0  0  0  0  0  0  0  0  0  0  0  0
   22.8180   33.7502   32.7031 C   0  0  2  0  0  0  0  0  0  0  0  0
   24.2698   33.6222   32.8892 N   0  0  0  0  0  0  0  0  0  0  0  0
   23.6609   34.1561   35.8728 C   0  0  2  0  0  0  0  0  0  0  0  0
   16.8364   36.5544   31.5005 C   0  0  2  0  0  0  0  0  0  0  0  0
   16.0584   35.3281   31.7390 N   0  0  0  0  0  0  0  0  0  0  0  0
   22.5736   34.4743   31.3300 C   0  0  0  0  0  0  0  0  0  0  0  0
   23.7771   32.9636   36.9022 C   0  0  2  0  0  0  0  0  0  0  0  0
   23.8722   31.7277   36.2152 O   0  0  0  0  0  0  0  0  0  0  0  0
   17.1805   36.6841   29.9860 C   0  0  1  0  0  0  0  0  0  0  0  0
   15.9770   36.6806   29.1961 O   0  0  0  0  0  0  0  0  0  0  0  0
   21.0227   34.5931   31.1231 C   0  0  2  0  0  0  0  0  0  0  0  0
   20.7151   35.2793   29.8359 N   0  0  0  0  0  0  0  0  0  0  0  0
   22.4967   32.9810   37.8202 C   0  0  1  0  0  0  0  0  0  0  0  0
   22.5261   31.8638   38.7856 N   0  0  0  0  0  0  0  0  0  0  0  0
   17.9937   37.9836   29.7802 C   0  0  2  0  0  0  0  0  0  0  0  0
   18.3100   38.1283   28.3921 O   0  0  0  0  0  0  0  0  0  0  0  0
   20.3671   35.3940   32.2886 C   0  0  2  0  0  0  0  0  0  0  0  0
   22.4285   34.3478   38.5721 C   0  0  1  0  0  0  0  0  0  0  0  0
   23.5834   34.4657   39.3966 O   0  0  0  0  0  0  0  0  0  0  0  0
   19.3060   37.9125   30.6740 C   0  0  2  0  0  0  0  0  0  0  0  0
   18.9579   37.7524   32.1034 O   0  0  0  0  0  0  0  0  0  0  0  0
   20.6854   34.6877   33.6344 C   0  0  2  0  0  0  0  0  0  0  0  0
   20.1021   35.4561   34.6847 O   0  0  0  0  0  0  0  0  0  0  0  0
   22.4047   35.5024   37.5196 C   0  0  0  0  0  0  0  0  0  0  0  0
   23.5756   35.4302   36.6131 O   0  0  0  0  0  0  0  0  0  0  0  0
   20.1931   39.1834   30.5384 C   0  0  2  0  0  0  0  0  0  0  0  0
   20.8137   39.1900   29.2480 O   0  0  0  0  0  0  0  0  0  0  0  0
   22.2096   34.6047   33.8955 C   0  0  1  0  0  0  0  0  0  0  0  0
   22.4086   33.9088   35.1567 O   0  0  0  0  0  0  0  0  0  0  0  0
   21.2891   39.2289   31.5801 C   0  0  0  0  0  0  0  0  0  0  0  0
   21.1969   34.4511   39.4728 C   0  0  0  0  0  0  0  0  0  0  0  0
   21.1401   31.3506   38.9137 C   0  0  0  0  0  0  0  0  0  0  0  0
  1  2  1  6  0  0  0
  1  6  1  0  0  0  0
  1 23  1  0  0  0  0
  3  4  1  1  0  0  0
  3  8  1  0  0  0  0
  3 30  1  0  0  0  0
  5  9  1  0  0  0  0
  5 27  1  0  0  0  0
  5 31  1  1  0  0  0
  6  7  1  6  0  0  0
  6 11  1  0  0  0  0
  8 13  1  0  0  0  0
  9 10  1  6  0  0  0
  9 15  1  0  0  0  0
 11 12  1  6  0  0  0
 11 17  1  0  0  0  0
 13 14  1  6  0  0  0
 13 19  1  0  0  0  0
 15 16  1  1  0  0  0
 15 20  1  0  0  0  0
 16 34  1  0  0  0  0
 17 18  1  6  0  0  0
 17 22  1  0  0  0  0
 19  2  1  6  0  0  0
 19 24  1  0  0  0  0
 20 21  1  1  0  0  0
 20 26  1  0  0  0  0
 20 33  1  0  0  0  0
 22 23  1  1  0  0  0
 22 28  1  0  0  0  0
 24 25  1  1  0  0  0
 24 30  1  0  0  0  0
 26 27  1  0  0  0  0
 28 29  1  6  0  0  0
 28 32  1  0  0  0  0
 30 31  1  1  0  0  0
M  END
>  <CHROM.1>
159.24944895,-145.73658157,-141.64090310,-71.52976365,88.16240623,-162.66841364
20.81734153,35.35605847,33.61922535,2.04085924,0.10634658,-1.13694759

>  <Name>
ligand

>  <RI>
0

>  <Rbt.Current_Directory>
/home/itssahil/PROJECTS/Mol_Feturizer/New_Systems/rnas/4p3s

>  <Rbt.Executable>
rbdock ($Id: //depot/dev/client3/rdock/2013.1/src/exe/rbdock.cxx#4 $)

>  <Rbt.Library>
libRbt.so (2013.1, Build901 2013/11/27)

>  <Rbt.Parameter_File>
/export/apps/rDock/src/rDock_2013.1_src/data/scripts/dock_solv.prm

>  <Rbt.Receptor>
prm/blind_docking_60.prm

>  <SCORE>
14.5029

>  <SCORE.INTER>
5.68088

>  <SCORE.INTER.CONST>
1

>  <SCORE.INTER.POLAR>
0

>  <SCORE.INTER.ROT>
6

>  <SCORE.INTER.SOLV>
18.6884

>  <SCORE.INTER.VDW>
-10.0422

>  <SCORE.INTER.norm>
0.167085

>  <SCORE.INTRA>
0.0560571

>  <SCORE.INTRA.DIHEDRAL>
-3.51292

>  <SCORE.INTRA.DIHEDRAL.0>
15.8194

>  <SCORE.INTRA.POLAR>
0

>  <SCORE.INTRA.POLAR.0>
0

>  <SCORE.INTRA.REPUL>
0

>  <SCORE.INTRA.REPUL.0>
0

>  <SCORE.INTRA.SOLV>
2.08985

>  <SCORE.INTRA.SOLV.lig_0>
-71.9159

>  <SCORE.INTRA.VDW>
0.767589

>  <SCORE.INTRA.VDW.0>
-3.53918

>  <SCORE.INTRA.norm>
0.00164874

>  <SCORE.RESTR>
8.76599

>  <SCORE.RESTR.CAVITY>
8.76599

>  <SCORE.RESTR.norm>
0.257823

>  <SCORE.SYSTEM>
0

>  <SCORE.SYSTEM.CONST>
0

>  <SCORE.SYSTEM.DIHEDRAL>
0

>  <SCORE.SYSTEM.SOLV>
0

>  <SCORE.SYSTEM.norm>
0

>  <SCORE.heavy>
34

>  <SCORE.norm>
0.426557

>  <RMSD>
8.913

$$$$
ligand
 OpenBabel01301917533D
libRbt.so/2013.1/901 2013/11/27
 34 36  0  0  0  0  0  0  0  0999 V2000
   19.3609   36.3413   30.6353 C   0  0  2  0  0  0  0  0  0  0  0  0
   19.0414   34.9717   30.3705 O   0  0  0  0  0  0  0  0  0  0  0  0
   20.1376   31.7714   33.0085 C   0  0  2  0  0  0  0  0  0  0  0  0
   20.8522   30.6360   33.6075 N   0  0  0  0  0  0  0  0  0  0  0  0
   22.2741   34.4873   34.7266 C   0  0  2  0  0  0  0  0  0  0  0  0
   18.2575   37.2393   29.9595 C   0  0  2  0  0  0  0  0  0  0  0  0
   16.9219   36.9146   30.4856 N   0  0  0  0  0  0  0  0  0  0  0  0
   19.8242   31.4045   31.5130 C   0  0  0  0  0  0  0  0  0  0  0  0
   23.6026   33.7385   35.1384 C   0  0  2  0  0  0  0  0  0  0  0  0
   24.0711   32.9408   34.0647 O   0  0  0  0  0  0  0  0  0  0  0  0
   18.2838   37.0514   28.4126 C   0  0  1  0  0  0  0  0  0  0  0  0
   17.2764   37.8704   27.7907 O   0  0  0  0  0  0  0  0  0  0  0  0
   19.0440   32.6097   30.8798 C   0  0  2  0  0  0  0  0  0  0  0  0
   18.7171   32.3323   29.4520 N   0  0  0  0  0  0  0  0  0  0  0  0
   23.2897   32.8372   36.3922 C   0  0  1  0  0  0  0  0  0  0  0  0
   24.4870   32.0789   36.8072 N   0  0  0  0  0  0  0  0  0  0  0  0
   19.7005   37.4045   27.9024 C   0  0  2  0  0  0  0  0  0  0  0  0
   19.7429   37.2502   26.4803 O   0  0  0  0  0  0  0  0  0  0  0  0
   19.8869   33.9184   30.9571 C   0  0  2  0  0  0  0  0  0  0  0  0
   22.7898   33.7458   37.5596 C   0  0  1  0  0  0  0  0  0  0  0  0
   23.8312   34.6553   37.8993 O   0  0  0  0  0  0  0  0  0  0  0  0
   20.7544   36.4588   28.6242 C   0  0  2  0  0  0  0  0  0  0  0  0
   20.6875   36.6257   30.0931 O   0  0  0  0  0  0  0  0  0  0  0  0
   20.2349   34.2134   32.4415 C   0  0  2  0  0  0  0  0  0  0  0  0
   21.0312   35.3959   32.4813 O   0  0  0  0  0  0  0  0  0  0  0  0
   21.5283   34.5341   37.0813 C   0  0  0  0  0  0  0  0  0  0  0  0
   21.8150   35.3188   35.8565 O   0  0  0  0  0  0  0  0  0  0  0  0
   22.2177   36.7417   28.1781 C   0  0  2  0  0  0  0  0  0  0  0  0
   22.4656   38.1506   28.2393 O   0  0  0  0  0  0  0  0  0  0  0  0
   21.0553   33.0656   33.0802 C   0  0  1  0  0  0  0  0  0  0  0  0
   21.3090   33.4178   34.4681 O   0  0  0  0  0  0  0  0  0  0  0  0
   22.4808   36.2859   26.7597 C   0  0  0  0  0  0  0  0  0  0  0  0
   22.4444   32.9393   38.8123 C   0  0  0  0  0  0  0  0  0  0  0  0
   24.0893   30.6555   36.9352 C   0  0  0  0  0  0  0  0  0  0  0  0
  1  2  1  6  0  0  0
  1  6  1  0  0  0  0
  1 23  1  0  0  0  0
  3  4  1  6  0  0  0
  3  8  1  0  0  0  0
  3 30  1  0  0  0  0
  5  9  1  0  0  0  0
  5 27  1  0  0  0  0
  5 31  1  1  0  0  0
  6  7  1  1  0  0  0
  6 11  1  0  0  0  0
  8 13  1  0  0  0  0
  9 10  1  6  0  0  0
  9 15  1  0  0  0  0
 11 12  1  6  0  0  0
 11 17  1  0  0  0  0
 13 14  1  6  0  0  0
 13 19  1  0  0  0  0
 15 16  1  1  0  0  0
 15 20  1  0  0  0  0
 16 34  1  0  0  0  0
 17 18  1  6  0  0  0
 17 22  1  0  0  0  0
 19  2  1  1  0  0  0
 19 24  1  0  0  0  0
 20 21  1  1  0  0  0
 20 26  1  0  0  0  0
 20 33  1  0  0  0  0
 22 23  1  1  0  0  0
 22 28  1  0  0  0  0
 24 25  1  6  0  0  0
 24 30  1  0  0  0  0
 26 27  1  0  0  0  0
 28 29  1  6  0  0  0
 28 32  1  0  0  0  0
 30 31  1  1  0  0  0
M  END
>  <CHROM.1>
-176.85660500,162.24580747,-129.25427394,48.42341827,172.55881333,-100.98798785
21.00836168,34.62012173,32.26089345,-2.08091141,0.77207972,2.37705866

>  <Name>
ligand

>  <RI>
0

>  <Rbt.Current_Directory>
/home/itssahil/PROJECTS/Mol_Feturizer/New_Systems/rnas/4p3s

>  <Rbt.Executable>
rbdock ($Id: //depot/dev/client3/rdock/2013.1/src/exe/rbdock.cxx#4 $)

>  <Rbt.Library>
libRbt.so (2013.1, Build901 2013/11/27)

>  <Rbt.Parameter_File>
/export/apps/rDock/src/rDock_2013.1_src/data/scripts/dock_solv.prm

>  <Rbt.Receptor>
prm/blind_docking_100.prm

>  <SCORE>
1.03816

>  <SCORE.INTER>
0.800161

>  <SCORE.INTER.CONST>
1

>  <SCORE.INTER.POLAR>
0

>  <SCORE.INTER.ROT>
6

>  <SCORE.INTER.SOLV>
13.2062

>  <SCORE.INTER.VDW>
-11.4686

>  <SCORE.INTER.norm>
0.0235341

>  <SCORE.INTRA>
-1.67915

>  <SCORE.INTRA.DIHEDRAL>
-6.83279

>  <SCORE.INTRA.DIHEDRAL.0>
15.8194

>  <SCORE.INTRA.POLAR>
0

>  <SCORE.INTRA.POLAR.0>
0

>  <SCORE.INTRA.REPUL>
0

>  <SCORE.INTRA.REPUL.0>
0

>  <SCORE.INTRA.SOLV>
-1.53858

>  <SCORE.INTRA.SOLV.lig_0>
-71.9159

>  <SCORE.INTRA.VDW>
2.50654

>  <SCORE.INTRA.VDW.0>
-3.53918

>  <SCORE.INTRA.norm>
-0.0493868

>  <SCORE.RESTR>
1.91715

>  <SCORE.RESTR.CAVITY>
1.91715

>  <SCORE.RESTR.norm>
0.0563866

>  <SCORE.SYSTEM>
0

>  <SCORE.SYSTEM.CONST>
0

>  <SCORE.SYSTEM.DIHEDRAL>
0

>  <SCORE.SYSTEM.SOLV>
0

>  <SCORE.SYSTEM.norm>
0

>  <SCORE.heavy>
34

>  <SCORE.norm>
0.030534

>  <RMSD>
8.915

$$$$
ligand
 OpenBabel01301917533D
libRbt.so/2013.1/901 2013/11/27
 34 36  0  0  0  0  0  0  0  0999 V2000
   17.9879   29.1265   37.4331 C   0  0  2  0  0  0  0  0  0  0  0  0
   17.7331   29.3518   36.0430 O   0  0  0  0  0  0  0  0  0  0  0  0
   15.9362   25.5383   35.2485 C   0  0  2  0  0  0  0  0  0  0  0  0
   15.1976   24.4502   34.5935 N   0  0  0  0  0  0  0  0  0  0  0  0
   19.2274   24.7470   33.4123 C   0  0  2  0  0  0  0  0  0  0  0  0
   18.6194   30.4391   38.0324 C   0  0  2  0  0  0  0  0  0  0  0  0
   17.7126   31.5850   37.8576 N   0  0  0  0  0  0  0  0  0  0  0  0
   14.9865   26.7883   35.3165 C   0  0  0  0  0  0  0  0  0  0  0  0
   18.5788   24.2916   32.0458 C   0  0  2  0  0  0  0  0  0  0  0  0
   17.5893   25.2201   31.6370 O   0  0  0  0  0  0  0  0  0  0  0  0
   19.9917   30.7340   37.3549 C   0  0  1  0  0  0  0  0  0  0  0  0
   20.5725   31.9333   37.8997 O   0  0  0  0  0  0  0  0  0  0  0  0
   15.7695   27.9437   36.0336 C   0  0  2  0  0  0  0  0  0  0  0  0
   14.9269   29.1699   36.1285 N   0  0  0  0  0  0  0  0  0  0  0  0
   17.9377   22.8680   32.2572 C   0  0  1  0  0  0  0  0  0  0  0  0
   17.2798   22.3984   31.0212 N   0  0  0  0  0  0  0  0  0  0  0  0
   20.9122   29.5088   37.5641 C   0  0  2  0  0  0  0  0  0  0  0  0
   22.1837   29.7642   36.9591 O   0  0  0  0  0  0  0  0  0  0  0  0
   17.0771   28.2913   35.2598 C   0  0  2  0  0  0  0  0  0  0  0  0
   19.0541   21.8670   32.6930 C   0  0  1  0  0  0  0  0  0  0  0  0
   20.0169   21.7838   31.6472 O   0  0  0  0  0  0  0  0  0  0  0  0
   20.2117   28.2293   36.9331 C   0  0  2  0  0  0  0  0  0  0  0  0
   18.8949   27.9887   37.5643 O   0  0  0  0  0  0  0  0  0  0  0  0
   17.9599   27.0182   35.1533 C   0  0  2  0  0  0  0  0  0  0  0  0
   19.1328   27.3552   34.4154 O   0  0  0  0  0  0  0  0  0  0  0  0
   19.7288   22.3999   33.9977 C   0  0  0  0  0  0  0  0  0  0  0  0
   20.2611   23.7707   33.8085 O   0  0  0  0  0  0  0  0  0  0  0  0
   21.0629   26.9375   37.0978 C   0  0  2  0  0  0  0  0  0  0  0  0
   20.3202   25.8171   36.6046 O   0  0  0  0  0  0  0  0  0  0  0  0
   17.2353   25.8758   34.3995 C   0  0  1  0  0  0  0  0  0  0  0  0
   18.1240   24.7250   34.3736 O   0  0  0  0  0  0  0  0  0  0  0  0
   21.4104   26.6628   38.5443 C   0  0  0  0  0  0  0  0  0  0  0  0
   18.5057   20.4606   32.9384 C   0  0  0  0  0  0  0  0  0  0  0  0
   15.8950   22.0032   31.3774 C   0  0  0  0  0  0  0  0  0  0  0  0
  1  2  1  6  0  0  0
  1  6  1  0  0  0  0
  1 23  1  0  0  0  0
  3  4  1  6  0  0  0
  3  8  1  0  0  0  0
  3 30  1  0  0  0  0
  5  9  1  0  0  0  0
  5 27  1  0  0  0  0
  5 31  1  1  0  0  0
  6  7  1  6  0  0  0
  6 11  1  0  0  0  0
  8 13  1  0  0  0  0
  9 10  1  1  0  0  0
  9 15  1  0  0  0  0
 11 12  1  1  0  0  0
 11 17  1  0  0  0  0
 13 14  1  6  0  0  0
 13 19  1  0  0  0  0
 15 16  1  6  0  0  0
 15 20  1  0  0  0  0
 16 34  1  0  0  0  0
 17 18  1  6  0  0  0
 17 22  1  0  0  0  0
 19  2  1  1  0  0  0
 19 24  1  0  0  0  0
 20 21  1  6  0  0  0
 20 26  1  0  0  0  0
 20 33  1  0  0  0  0
 22 23  1  1  0  0  0
 22 28  1  0  0  0  0
 24 25  1  6  0  0  0
 24 30  1  0  0  0  0
 26 27  1  0  0  0  0
 28 29  1  1  0  0  0
 28 32  1  0  0  0  0
 30 31  1  1  0  0  0
M  END
>  <CHROM.1>
-177.03123978,53.76498163,-127.76763458,175.33621970,167.26264028,-81.66835763
18.51180725,26.37192799,35.09769070,1.42429622,-0.23592868,0.57082363

>  <Name>
ligand

>  <RI>
0

>  <Rbt.Current_Directory>
/home/itssahil/PROJECTS/Mol_Feturizer/New_Systems/rnas/4p3s

>  <Rbt.Executable>
rbdock ($Id: //depot/dev/client3/rdock/2013.1/src/exe/rbdock.cxx#4 $)

>  <Rbt.Library>
libRbt.so (2013.1, Build901 2013/11/27)

>  <Rbt.Parameter_File>
/export/apps/rDock/src/rDock_2013.1_src/data/scripts/dock_solv.prm

>  <Rbt.Receptor>
prm/pocket_docking_4.prm

>  <SCORE>
-13.1061

>  <SCORE.INTER>
-9.36514

>  <SCORE.INTER.CONST>
1

>  <SCORE.INTER.POLAR>
0

>  <SCORE.INTER.ROT>
6

>  <SCORE.INTER.SOLV>
15.9067

>  <SCORE.INTER.VDW>
-19.1457

>  <SCORE.INTER.norm>
-0.275445

>  <SCORE.INTRA>
-3.74839

>  <SCORE.INTRA.DIHEDRAL>
-11.4241

>  <SCORE.INTRA.DIHEDRAL.0>
15.8194

>  <SCORE.INTRA.POLAR>
0

>  <SCORE.INTRA.POLAR.0>
0

>  <SCORE.INTRA.REPUL>
0

>  <SCORE.INTRA.REPUL.0>
0

>  <SCORE.INTRA.SOLV>
1.67307

>  <SCORE.INTRA.SOLV.lig_0>
-71.9159

>  <SCORE.INTRA.VDW>
1.12712

>  <SCORE.INTRA.VDW.0>
-3.53918

>  <SCORE.INTRA.norm>
-0.110247

>  <SCORE.RESTR>
0.00741089

>  <SCORE.RESTR.CAVITY>
0.00741089

>  <SCORE.RESTR.norm>
0.000217967

>  <SCORE.SYSTEM>
0

>  <SCORE.SYSTEM.CONST>
0

>  <SCORE.SYSTEM.DIHEDRAL>
0

>  <SCORE.SYSTEM.SOLV>
0

>  <SCORE.SYSTEM.norm>
0

>  <SCORE.heavy>
34

>  <SCORE.norm>
-0.385474

>  <RMSD>
8.930

$$$$
ligand
 OpenBabel01301917533D
libRbt.so/2013.1/901 2013/11/27
 34 36  0  0  0  0  0  0  0  0999 V2000
   19.0204   35.7398   31.5393 C   0  0  2  0  0  0  0  0  0  0  0  0
   19.8819   35.3557   30.4630 O   0  0  0  0  0  0  0  0  0  0  0  0
   21.1367   31.4777   31.8004 C   0  0  2  0  0  0  0  0  0  0  0  0
   21.9063   30.2370   31.9650 N   0  0  0  0  0  0  0  0  0  0  0  0
   23.6247   32.4744   34.2134 C   0  0  2  0  0  0  0  0  0  0  0  0
   17.5603   35.8862   30.9671 C   0  0  2  0  0  0  0  0  0  0  0  0
   17.1011   34.6216   30.3706 N   0  0  0  0  0  0  0  0  0  0  0  0
   20.8370   31.6553   30.2682 C   0  0  0  0  0  0  0  0  0  0  0  0
   23.5382   32.0923   35.7437 C   0  0  2  0  0  0  0  0  0  0  0  0
   22.9361   30.8188   35.8997 O   0  0  0  0  0  0  0  0  0  0  0  0
   17.5095   37.0277   29.9072 C   0  0  1  0  0  0  0  0  0  0  0  0
   16.1765   37.1649   29.3813 O   0  0  0  0  0  0  0  0  0  0  0  0
   19.9985   32.9704   30.0956 C   0  0  2  0  0  0  0  0  0  0  0  0
   19.6813   33.2068   28.6583 N   0  0  0  0  0  0  0  0  0  0  0  0
   22.6836   33.1940   36.4773 C   0  0  1  0  0  0  0  0  0  0  0  0
   22.5335   32.8751   37.9114 N   0  0  0  0  0  0  0  0  0  0  0  0
   17.9964   38.3351   30.5748 C   0  0  2  0  0  0  0  0  0  0  0  0
   17.9459   39.4004   29.6205 O   0  0  0  0  0  0  0  0  0  0  0  0
   20.7783   34.2021   30.6472 C   0  0  2  0  0  0  0  0  0  0  0  0
   23.3797   34.5803   36.2984 C   0  0  1  0  0  0  0  0  0  0  0  0
   24.6657   34.5197   36.9064 O   0  0  0  0  0  0  0  0  0  0  0  0
   19.4715   38.1111   31.1225 C   0  0  2  0  0  0  0  0  0  0  0  0
   19.5041   36.9996   32.0991 O   0  0  0  0  0  0  0  0  0  0  0  0
   21.1159   33.9629   32.1439 C   0  0  2  0  0  0  0  0  0  0  0  0
   21.8550   35.0880   32.6147 O   0  0  0  0  0  0  0  0  0  0  0  0
   23.5252   34.8789   34.7716 C   0  0  0  0  0  0  0  0  0  0  0  0
   24.2655   33.7973   34.0786 O   0  0  0  0  0  0  0  0  0  0  0  0
   20.0506   39.3757   31.8195 C   0  0  2  0  0  0  0  0  0  0  0  0
   19.0214   40.0004   32.5944 O   0  0  0  0  0  0  0  0  0  0  0  0
   21.9918   32.7012   32.3427 C   0  0  1  0  0  0  0  0  0  0  0  0
   22.2322   32.5455   33.7684 O   0  0  0  0  0  0  0  0  0  0  0  0
   20.5630   40.3927   30.8236 C   0  0  0  0  0  0  0  0  0  0  0  0
   22.5971   35.7106   36.9684 C   0  0  0  0  0  0  0  0  0  0  0  0
   21.1089   33.0869   38.2670 C   0  0  0  0  0  0  0  0  0  0  0  0
  1  2  1  6  0  0  0
  1  6  1  0  0  0  0
  1 23  1  0  0  0  0
  3  4  1  6  0  0  0
  3  8  1  0  0  0  0
  3 30  1  0  0  0  0
  5  9  1  0  0  0  0
  5 27  1  0  0  0  0
  5 31  1  1  0  0  0
  6  7  1  6  0  0  0
  6 11  1  0  0  0  0
  8 13  1  0  0  0  0
  9 10  1  6  0  0  0
  9 15  1  0  0  0  0
 11 12  1  1  0  0  0
 11 17  1  0  0  0  0
 13 14  1  6  0  0  0
 13 19  1  0  0  0  0
 15 16  1  1  0  0  0
 15 20  1  0  0  0  0
 16 34  1  0  0  0  0
 17 18  1  6  0  0  0
 17 22  1  0  0  0  0
 19  2  1  1  0  0  0
 19 24  1  0  0  0  0
 20 21  1  1  0  0  0
 20 26  1  0  0  0  0
 20 33  1  0  0  0  0
 22 23  1  1  0  0  0
 22 28  1  0  0  0  0
 24 25  1  6  0  0  0
 24 30  1  0  0  0  0
 26 27  1  0  0  0  0
 28 29  1  6  0  0  0
 28 32  1  0  0  0  0
 30 31  1  1  0  0  0
M  END
>  <CHROM.1>
-129.80195705,93.16609666,-134.56516602,39.82831952,120.34073871,-171.73247295
20.83387413,34.87921136,32.75932433,2.87827437,-0.97142242,0.41125336

>  <Name>
ligand

>  <RI>
0

>  <Rbt.Current_Directory>
/home/itssahil/PROJECTS/Mol_Feturizer/New_Systems/rnas/4p3s

>  <Rbt.Executable>
rbdock ($Id: //depot/dev/client3/rdock/2013.1/src/exe/rbdock.cxx#4 $)

>  <Rbt.Library>
libRbt.so (2013.1, Build901 2013/11/27)

>  <Rbt.Parameter_File>
/export/apps/rDock/src/rDock_2013.1_src/data/scripts/dock_solv.prm

>  <Rbt.Receptor>
prm/blind_docking_60.prm

>  <SCORE>
38.5465

>  <SCORE.INTER>
29.0697

>  <SCORE.INTER.CONST>
1

>  <SCORE.INTER.POLAR>
0

>  <SCORE.INTER.ROT>
6

>  <SCORE.INTER.SOLV>
18.4102

>  <SCORE.INTER.VDW>
5.64309

>  <SCORE.INTER.norm>
0.854992

>  <SCORE.INTRA>
4.77609

>  <SCORE.INTRA.DIHEDRAL>
4.97545

>  <SCORE.INTRA.DIHEDRAL.0>
15.8194

>  <SCORE.INTRA.POLAR>
0

>  <SCORE.INTRA.POLAR.0>
0

>  <SCORE.INTRA.REPUL>
0

>  <SCORE.INTRA.REPUL.0>
0

>  <SCORE.INTRA.SOLV>
1.27758

>  <SCORE.INTRA.SOLV.lig_0>
-71.9159

>  <SCORE.INTRA.VDW>
1.64957

>  <SCORE.INTRA.VDW.0>
-3.53918

>  <SCORE.INTRA.norm>
0.140473

>  <SCORE.RESTR>
4.70067

>  <SCORE.RESTR.CAVITY>
4.70067

>  <SCORE.RESTR.norm>
0.138255

>  <SCORE.SYSTEM>
0

>  <SCORE.SYSTEM.CONST>
0

>  <SCORE.SYSTEM.DIHEDRAL>
0

>  <SCORE.SYSTEM.SOLV>
0

>  <SCORE.SYSTEM.norm>
0

>  <SCORE.heavy>
34

>  <SCORE.norm>
1.13372

>  <RMSD>
8.935

$$$$
ligand
 OpenBabel01301917533D
libRbt.so/2013.1/901 2013/11/27
 34 36  0  0  0  0  0  0  0  0999 V2000
   22.4576   30.6877   38.0872 C   0  0  2  0  0  0  0  0  0  0  0  0
   21.0776   31.0600   38.0147 O   0  0  0  0  0  0  0  0  0  0  0  0
   17.9421   30.0022   35.2850 C   0  0  2  0  0  0  0  0  0  0  0  0
   17.1116   29.9138   34.0762 N   0  0  0  0  0  0  0  0  0  0  0  0
   18.3169   27.1488   35.6065 C   0  0  2  0  0  0  0  0  0  0  0  0
   22.8724   30.6451   39.6060 C   0  0  2  0  0  0  0  0  0  0  0  0
   22.0434   29.6830   40.3497 N   0  0  0  0  0  0  0  0  0  0  0  0
   18.1169   31.5240   35.6354 C   0  0  0  0  0  0  0  0  0  0  0  0
   18.9458   25.6999   35.6275 C   0  0  2  0  0  0  0  0  0  0  0  0
   20.2534   25.7387   36.1727 O   0  0  0  0  0  0  0  0  0  0  0  0
   22.7446   32.0635   40.2389 C   0  0  1  0  0  0  0  0  0  0  0  0
   23.1227   32.0291   41.6275 O   0  0  0  0  0  0  0  0  0  0  0  0
   18.9877   31.6166   36.9374 C   0  0  2  0  0  0  0  0  0  0  0  0
   19.2004   33.0396   37.3275 N   0  0  0  0  0  0  0  0  0  0  0  0
   18.9870   25.1611   34.1475 C   0  0  1  0  0  0  0  0  0  0  0  0
   19.6004   23.8188   34.0931 N   0  0  0  0  0  0  0  0  0  0  0  0
   23.6310   33.0399   39.4308 C   0  0  2  0  0  0  0  0  0  0  0  0
   23.5374   34.3479   40.0038 O   0  0  0  0  0  0  0  0  0  0  0  0
   20.3761   30.9407   36.7256 C   0  0  2  0  0  0  0  0  0  0  0  0
   17.5324   25.1176   33.5814 C   0  0  1  0  0  0  0  0  0  0  0  0
   16.7678   24.2158   34.3748 O   0  0  0  0  0  0  0  0  0  0  0  0
   23.1519   33.0305   37.9154 C   0  0  2  0  0  0  0  0  0  0  0  0
   23.2464   31.6683   37.3449 O   0  0  0  0  0  0  0  0  0  0  0  0
   20.1639   29.4581   36.3156 C   0  0  2  0  0  0  0  0  0  0  0  0
   21.4459   28.8727   36.0978 O   0  0  0  0  0  0  0  0  0  0  0  0
   16.9167   26.5515   33.6608 C   0  0  0  0  0  0  0  0  0  0  0  0
   16.9531   27.0782   35.0462 O   0  0  0  0  0  0  0  0  0  0  0  0
   23.9901   33.9837   37.0158 C   0  0  2  0  0  0  0  0  0  0  0  0
   23.7684   35.3371   37.4273 O   0  0  0  0  0  0  0  0  0  0  0  0
   19.3545   29.3338   35.0011 C   0  0  1  0  0  0  0  0  0  0  0  0
   19.1850   27.9183   34.7141 O   0  0  0  0  0  0  0  0  0  0  0  0
   23.6081   33.8745   35.5561 C   0  0  0  0  0  0  0  0  0  0  0  0
   17.4897   24.6219   32.1353 C   0  0  0  0  0  0  0  0  0  0  0  0
   20.4749   23.7780   32.8954 C   0  0  0  0  0  0  0  0  0  0  0  0
  1  2  1  1  0  0  0
  1  6  1  0  0  0  0
  1 23  1  0  0  0  0
  3  4  1  6  0  0  0
  3  8  1  0  0  0  0
  3 30  1  0  0  0  0
  5  9  1  0  0  0  0
  5 27  1  0  0  0  0
  5 31  1  6  0  0  0
  6  7  1  1  0  0  0
  6 11  1  0  0  0  0
  8 13  1  0  0  0  0
  9 10  1  6  0  0  0
  9 15  1  0  0  0  0
 11 12  1  1  0  0  0
 11 17  1  0  0  0  0
 13 14  1  6  0  0  0
 13 19  1  0  0  0  0
 15 16  1  1  0  0  0
 15 20  1  0  0  0  0
 16 34  1  0  0  0  0
 17 18  1  1  0  0  0
 17 22  1  0  0  0  0
 19  2  1  1  0  0  0
 19 24  1  0  0  0  0
 20 21  1  1  0  0  0
 20 26  1  0  0  0  0
 20 33  1  0  0  0  0
 22 23  1  6  0  0  0
 22 28  1  0  0  0  0
 24 25  1  6  0  0  0
 24 30  1  0  0  0  0
 26 27  1  0  0  0  0
 28 29  1  1  0  0  0
 28 32  1  0  0  0  0
 30 31  1  1  0  0  0
M  END
>  <CHROM.1>
-169.20521006,-171.70508708,-139.35910389,-65.60415931,-46.68252563,-147.83288583
20.41501097,29.49823852,36.41802792,-0.86459113,0.74114802,-3.10728897

>  <Name>
ligand

>  <RI>
0

>  <Rbt.Current_Directory>
/home/itssahil/PROJECTS/Mol_Feturizer/New_Systems/rnas/4p3s

>  <Rbt.Executable>
rbdock ($Id: //depot/dev/client3/rdock/2013.1/src/exe/rbdock.cxx#4 $)

>  <Rbt.Library>
libRbt.so (2013.1, Build901 2013/11/27)

>  <Rbt.Parameter_File>
/export/apps/rDock/src/rDock_2013.1_src/data/scripts/dock_solv.prm

>  <Rbt.Receptor>
prm/pocket_docking_3.prm

>  <SCORE>
-9.9101

>  <SCORE.INTER>
-7.53609

>  <SCORE.INTER.CONST>
1

>  <SCORE.INTER.POLAR>
0

>  <SCORE.INTER.ROT>
6

>  <SCORE.INTER.SOLV>
13.2829

>  <SCORE.INTER.VDW>
-17.0517

>  <SCORE.INTER.norm>
-0.22165

>  <SCORE.INTRA>
-2.79821

>  <SCORE.INTRA.DIHEDRAL>
-8.98146

>  <SCORE.INTRA.DIHEDRAL.0>
15.8194

>  <SCORE.INTRA.POLAR>
0

>  <SCORE.INTRA.POLAR.0>
0

>  <SCORE.INTRA.REPUL>
0

>  <SCORE.INTRA.REPUL.0>
0

>  <SCORE.INTRA.SOLV>
0.314923

>  <SCORE.INTRA.SOLV.lig_0>
-71.9159

>  <SCORE.INTRA.VDW>
1.53506

>  <SCORE.INTRA.VDW.0>
-3.53918

>  <SCORE.INTRA.norm>
-0.0823003

>  <SCORE.RESTR>
0.4242

>  <SCORE.RESTR.CAVITY>
0.4242

>  <SCORE.RESTR.norm>
0.0124765

>  <SCORE.SYSTEM>
0

>  <SCORE.SYSTEM.CONST>
0

>  <SCORE.SYSTEM.DIHEDRAL>
0

>  <SCORE.SYSTEM.SOLV>
0

>  <SCORE.SYSTEM.norm>
0

>  <SCORE.heavy>
34

>  <SCORE.norm>
-0.291474

>  <RMSD>
8.945

$$$$
ligand
 OpenBabel01301917533D
libRbt.so/2013.1/901 2013/11/27
 34 36  0  0  0  0  0  0  0  0999 V2000
   20.9935   32.3467   34.4270 C   0  0  2  0  0  0  0  0  0  0  0  0
   21.4968   31.0085   34.3637 O   0  0  0  0  0  0  0  0  0  0  0  0
   21.0944   27.2028   36.3020 C   0  0  2  0  0  0  0  0  0  0  0  0
   20.6778   26.1451   37.2328 N   0  0  0  0  0  0  0  0  0  0  0  0
   18.0678   26.7611   33.9539 C   0  0  2  0  0  0  0  0  0  0  0  0
   21.0433   32.9559   32.9754 C   0  0  2  0  0  0  0  0  0  0  0  0
   20.2404   32.1511   32.0406 N   0  0  0  0  0  0  0  0  0  0  0  0
   21.6587   28.3958   37.1549 C   0  0  0  0  0  0  0  0  0  0  0  0
   17.2471   25.4501   34.2747 C   0  0  2  0  0  0  0  0  0  0  0  0
   17.0170   25.3422   35.6689 O   0  0  0  0  0  0  0  0  0  0  0  0
   22.5178   33.0418   32.4780 C   0  0  1  0  0  0  0  0  0  0  0  0
   22.5679   33.5980   31.1512 O   0  0  0  0  0  0  0  0  0  0  0  0
   22.1212   29.5170   36.1592 C   0  0  2  0  0  0  0  0  0  0  0  0
   22.6652   30.6888   36.9029 N   0  0  0  0  0  0  0  0  0  0  0  0
   18.0769   24.2133   33.7608 C   0  0  1  0  0  0  0  0  0  0  0  0
   17.3782   22.9481   34.0641 N   0  0  0  0  0  0  0  0  0  0  0  0
   23.3232   33.8958   33.4850 C   0  0  2  0  0  0  0  0  0  0  0  0
   24.6795   33.9976   33.0398 O   0  0  0  0  0  0  0  0  0  0  0  0
   20.9333   29.9937   35.2698 C   0  0  2  0  0  0  0  0  0  0  0  0
   18.3011   24.3553   32.2220 C   0  0  1  0  0  0  0  0  0  0  0  0
   17.0302   24.3513   31.5800 O   0  0  0  0  0  0  0  0  0  0  0  0
   23.2287   33.2190   34.9199 C   0  0  2  0  0  0  0  0  0  0  0  0
   21.8189   33.1136   35.3572 O   0  0  0  0  0  0  0  0  0  0  0  0
   20.3580   28.7781   34.4935 C   0  0  2  0  0  0  0  0  0  0  0  0
   19.2551   29.2347   33.7133 O   0  0  0  0  0  0  0  0  0  0  0  0
   19.0361   25.7053   31.9413 C   0  0  0  0  0  0  0  0  0  0  0  0
   18.2828   26.8552   32.4965 O   0  0  0  0  0  0  0  0  0  0  0  0
   24.0080   34.0111   36.0088 C   0  0  2  0  0  0  0  0  0  0  0  0
   24.4929   33.0985   36.9998 O   0  0  0  0  0  0  0  0  0  0  0  0
   19.8402   27.6759   35.4502 C   0  0  1  0  0  0  0  0  0  0  0  0
   19.3486   26.5749   34.6374 O   0  0  0  0  0  0  0  0  0  0  0  0
   23.1364   35.0323   36.7060 C   0  0  0  0  0  0  0  0  0  0  0  0
   19.1200   23.1981   31.6482 C   0  0  0  0  0  0  0  0  0  0  0  0
   18.4011   21.9724   34.5140 C   0  0  0  0  0  0  0  0  0  0  0  0
  1  2  1  6  0  0  0
  1  6  1  0  0  0  0
  1 23  1  0  0  0  0
  3  4  1  1  0  0  0
  3  8  1  0  0  0  0
  3 30  1  0  0  0  0
  5  9  1  0  0  0  0
  5 27  1  0  0  0  0
  5 31  1  1  0  0  0
  6  7  1  6  0  0  0
  6 11  1  0  0  0  0
  8 13  1  0  0  0  0
  9 10  1  1  0  0  0
  9 15  1  0  0  0  0
 11 12  1  6  0  0  0
 11 17  1  0  0  0  0
 13 14  1  1  0  0  0
 13 19  1  0  0  0  0
 15 16  1  6  0  0  0
 15 20  1  0  0  0  0
 16 34  1  0  0  0  0
 17 18  1  6  0  0  0
 17 22  1  0  0  0  0
 19  2  1  6  0  0  0
 19 24  1  0  0  0  0
 20 21  1  6  0  0  0
 20 26  1  0  0  0  0
 20 33  1  0  0  0  0
 22 23  1  1  0  0  0
 22 28  1  0  0  0  0
 24 25  1  1  0  0  0
 24 30  1  0  0  0  0
 26 27  1  0  0  0  0
 28 29  1  1  0  0  0
 28 32  1  0  0  0  0
 30 31  1  6  0  0  0
M  END
>  <CHROM.1>
-146.72933830,-118.19111193,-139.10122164,-149.31010285,170.22289626,-131.90980706
20.57060523,29.03146844,34.31895267,0.41361826,-1.02291753,-0.98331469

>  <Name>
ligand

>  <RI>
0

>  <Rbt.Current_Directory>
/home/itssahil/PROJECTS/Mol_Feturizer/New_Systems/rnas/4p3s

>  <Rbt.Executable>
rbdock ($Id: //depot/dev/client3/rdock/2013.1/src/exe/rbdock.cxx#4 $)

>  <Rbt.Library>
libRbt.so (2013.1, Build901 2013/11/27)

>  <Rbt.Parameter_File>
/export/apps/rDock/src/rDock_2013.1_src/data/scripts/dock_solv.prm

>  <Rbt.Receptor>
prm/blind_docking_80.prm

>  <SCORE>
0.948791

>  <SCORE.INTER>
-7.334

>  <SCORE.INTER.CONST>
1

>  <SCORE.INTER.POLAR>
0

>  <SCORE.INTER.ROT>
6

>  <SCORE.INTER.SOLV>
19.545

>  <SCORE.INTER.VDW>
-19.0043

>  <SCORE.INTER.norm>
-0.215706

>  <SCORE.INTRA>
5.97528

>  <SCORE.INTRA.DIHEDRAL>
6.34915

>  <SCORE.INTRA.DIHEDRAL.0>
15.8194

>  <SCORE.INTRA.POLAR>
0

>  <SCORE.INTRA.POLAR.0>
0

>  <SCORE.INTRA.REPUL>
0

>  <SCORE.INTRA.REPUL.0>
0

>  <SCORE.INTRA.SOLV>
1.89965

>  <SCORE.INTRA.SOLV.lig_0>
-71.9159

>  <SCORE.INTRA.VDW>
1.85088

>  <SCORE.INTRA.VDW.0>
-3.53918

>  <SCORE.INTRA.norm>
0.175743

>  <SCORE.RESTR>
2.30751

>  <SCORE.RESTR.CAVITY>
2.30751

>  <SCORE.RESTR.norm>
0.067868

>  <SCORE.SYSTEM>
0

>  <SCORE.SYSTEM.CONST>
0

>  <SCORE.SYSTEM.DIHEDRAL>
0

>  <SCORE.SYSTEM.SOLV>
0

>  <SCORE.SYSTEM.norm>
0

>  <SCORE.heavy>
34

>  <SCORE.norm>
0.0279056

>  <RMSD>
8.946

$$$$
ligand
 OpenBabel01301917533D
libRbt.so/2013.1/901 2013/11/27
 34 36  0  0  0  0  0  0  0  0999 V2000
   22.3177   27.3922   37.4064 C   0  0  2  0  0  0  0  0  0  0  0  0
   21.0740   27.6088   38.0806 O   0  0  0  0  0  0  0  0  0  0  0  0
   16.9946   27.5755   36.7542 C   0  0  2  0  0  0  0  0  0  0  0  0
   15.7360   27.9486   36.0945 N   0  0  0  0  0  0  0  0  0  0  0  0
   17.4121   26.2357   33.4570 C   0  0  2  0  0  0  0  0  0  0  0  0
   23.4080   27.0522   38.4911 C   0  0  2  0  0  0  0  0  0  0  0  0
   23.0280   25.8565   39.2604 N   0  0  0  0  0  0  0  0  0  0  0  0
   17.4701   28.8056   37.6085 C   0  0  0  0  0  0  0  0  0  0  0  0
   16.6905   24.9081   32.9964 C   0  0  2  0  0  0  0  0  0  0  0  0
   15.4436   24.7714   33.6560 O   0  0  0  0  0  0  0  0  0  0  0  0
   23.6094   28.2642   39.4501 C   0  0  1  0  0  0  0  0  0  0  0  0
   24.6052   27.9576   40.4435 O   0  0  0  0  0  0  0  0  0  0  0  0
   18.8042   28.3993   38.3280 C   0  0  2  0  0  0  0  0  0  0  0  0
   19.3192   29.5267   39.1563 N   0  0  0  0  0  0  0  0  0  0  0  0
   17.6294   23.6923   33.3462 C   0  0  1  0  0  0  0  0  0  0  0  0
   16.9945   22.4125   32.9724 N   0  0  0  0  0  0  0  0  0  0  0  0
   24.0089   29.4951   38.6032 C   0  0  2  0  0  0  0  0  0  0  0  0
   24.2109   30.6179   39.4672 O   0  0  0  0  0  0  0  0  0  0  0  0
   19.8954   27.9997   37.2892 C   0  0  2  0  0  0  0  0  0  0  0  0
   18.9872   23.8656   32.5947 C   0  0  1  0  0  0  0  0  0  0  0  0
   18.7304   23.8564   31.1942 O   0  0  0  0  0  0  0  0  0  0  0  0
   22.8635   29.7765   37.5379 C   0  0  2  0  0  0  0  0  0  0  0  0
   22.6631   28.6008   36.6618 O   0  0  0  0  0  0  0  0  0  0  0  0
   19.3658   26.8273   36.4194 C   0  0  2  0  0  0  0  0  0  0  0  0
   20.3687   26.5027   35.4588 O   0  0  0  0  0  0  0  0  0  0  0  0
   19.6241   25.2303   33.0111 C   0  0  0  0  0  0  0  0  0  0  0  0
   18.7004   26.3595   32.7472 O   0  0  0  0  0  0  0  0  0  0  0  0
   23.1769   31.0003   36.6299 C   0  0  2  0  0  0  0  0  0  0  0  0
   23.4357   32.1437   37.4520 O   0  0  0  0  0  0  0  0  0  0  0  0
   18.0787   27.2156   35.6508 C   0  0  1  0  0  0  0  0  0  0  0  0
   17.6461   26.0541   34.8903 O   0  0  0  0  0  0  0  0  0  0  0  0
   22.0236   31.3409   35.7119 C   0  0  0  0  0  0  0  0  0  0  0  0
   19.9654   22.7303   32.8995 C   0  0  0  0  0  0  0  0  0  0  0  0
   16.4880   21.7870   34.2187 C   0  0  0  0  0  0  0  0  0  0  0  0
  1  2  1  1  0  0  0
  1  6  1  0  0  0  0
  1 23  1  0  0  0  0
  3  4  1  6  0  0  0
  3  8  1  0  0  0  0
  3 30  1  0  0  0  0
  5  9  1  0  0  0  0
  5 27  1  0  0  0  0
  5 31  1  1  0  0  0
  6  7  1  1  0  0  0
  6 11  1  0  0  0  0
  8 13  1  0  0  0  0
  9 10  1  1  0  0  0
  9 15  1  0  0  0  0
 11 12  1  1  0  0  0
 11 17  1  0  0  0  0
 13 14  1  6  0  0  0
 13 19  1  0  0  0  0
 15 16  1  6  0  0  0
 15 20  1  0  0  0  0
 16 34  1  0  0  0  0
 17 18  1  1  0  0  0
 17 22  1  0  0  0  0
 19  2  1  1  0  0  0
 19 24  1  0  0  0  0
 20 21  1  6  0  0  0
 20 26  1  0  0  0  0
 20 33  1  0  0  0  0
 22 23  1  6  0  0  0
 22 28  1  0  0  0  0
 24 25  1  6  0  0  0
 24 30  1  0  0  0  0
 26 27  1  0  0  0  0
 28 29  1  1  0  0  0
 28 32  1  0  0  0  0
 30 31  1  1  0  0  0
M  END
>  <CHROM.1>
177.51670545,-170.10442261,-103.07339485,-54.92895076,117.55765209,-168.95761592
20.04276364,27.05690780,36.04232142,-0.89528363,0.23927352,-2.55263599

>  <Name>
ligand

>  <RI>
0

>  <Rbt.Current_Directory>
/home/itssahil/PROJECTS/Mol_Feturizer/New_Systems/rnas/4p3s

>  <Rbt.Executable>
rbdock ($Id: //depot/dev/client3/rdock/2013.1/src/exe/rbdock.cxx#4 $)

>  <Rbt.Library>
libRbt.so (2013.1, Build901 2013/11/27)

>  <Rbt.Parameter_File>
/export/apps/rDock/src/rDock_2013.1_src/data/scripts/dock_solv.prm

>  <Rbt.Receptor>
prm/pocket_docking_3.prm

>  <SCORE>
-11.309

>  <SCORE.INTER>
-7.92395

>  <SCORE.INTER.CONST>
1

>  <SCORE.INTER.POLAR>
0

>  <SCORE.INTER.ROT>
6

>  <SCORE.INTER.SOLV>
15.1455

>  <SCORE.INTER.VDW>
-17.9311

>  <SCORE.INTER.norm>
-0.233057

>  <SCORE.INTRA>
-3.74444

>  <SCORE.INTRA.DIHEDRAL>
-6.50238

>  <SCORE.INTRA.DIHEDRAL.0>
15.8194

>  <SCORE.INTRA.POLAR>
0

>  <SCORE.INTRA.POLAR.0>
0

>  <SCORE.INTRA.REPUL>
0

>  <SCORE.INTRA.REPUL.0>
0

>  <SCORE.INTRA.SOLV>
-1.00498

>  <SCORE.INTRA.SOLV.lig_0>
-71.9159

>  <SCORE.INTRA.VDW>
0.00923997

>  <SCORE.INTRA.VDW.0>
-3.53918

>  <SCORE.INTRA.norm>
-0.110131

>  <SCORE.RESTR>
0.359355

>  <SCORE.RESTR.CAVITY>
0.359355

>  <SCORE.RESTR.norm>
0.0105693

>  <SCORE.SYSTEM>
0

>  <SCORE.SYSTEM.CONST>
0

>  <SCORE.SYSTEM.DIHEDRAL>
0

>  <SCORE.SYSTEM.SOLV>
0

>  <SCORE.SYSTEM.norm>
0

>  <SCORE.heavy>
34

>  <SCORE.norm>
-0.332619

>  <RMSD>
8.949

$$$$
ligand
 OpenBabel01301917533D
libRbt.so/2013.1/901 2013/11/27
 34 36  0  0  0  0  0  0  0  0999 V2000
   18.5803   37.5103   37.1030 C   0  0  2  0  0  0  0  0  0  0  0  0
   19.8779   37.8343   36.5938 O   0  0  0  0  0  0  0  0  0  0  0  0
   20.6181   34.1217   34.5762 C   0  0  2  0  0  0  0  0  0  0  0  0
   21.1352   33.1235   33.6303 N   0  0  0  0  0  0  0  0  0  0  0  0
   23.7996   33.6650   36.5898 C   0  0  2  0  0  0  0  0  0  0  0  0
   18.0990   38.7056   38.0087 C   0  0  2  0  0  0  0  0  0  0  0  0
   18.0482   39.9594   37.2396 N   0  0  0  0  0  0  0  0  0  0  0  0
   19.9782   35.2876   33.7394 C   0  0  0  0  0  0  0  0  0  0  0  0
   24.2033   32.1840   36.9625 C   0  0  2  0  0  0  0  0  0  0  0  0
   24.0273   31.3299   35.8454 O   0  0  0  0  0  0  0  0  0  0  0  0
   19.0473   38.8677   39.2349 C   0  0  1  0  0  0  0  0  0  0  0  0
   18.6111   39.9595   40.0654 O   0  0  0  0  0  0  0  0  0  0  0  0
   19.4090   36.3437   34.7508 C   0  0  2  0  0  0  0  0  0  0  0  0
   18.7888   37.4875   34.0231 N   0  0  0  0  0  0  0  0  0  0  0  0
   23.2924   31.7132   38.1587 C   0  0  1  0  0  0  0  0  0  0  0  0
   23.5957   30.3173   38.5335 N   0  0  0  0  0  0  0  0  0  0  0  0
   19.0693   37.5319   40.0142 C   0  0  2  0  0  0  0  0  0  0  0  0
   19.9262   37.6632   41.1529 O   0  0  0  0  0  0  0  0  0  0  0  0
   20.5376   36.8899   35.6766 C   0  0  2  0  0  0  0  0  0  0  0  0
   23.5193   32.6646   39.3759 C   0  0  1  0  0  0  0  0  0  0  0  0
   24.8829   32.5677   39.7744 O   0  0  0  0  0  0  0  0  0  0  0  0
   19.5660   36.3791   39.0393 C   0  0  2  0  0  0  0  0  0  0  0  0
   18.6735   36.2667   37.8642 O   0  0  0  0  0  0  0  0  0  0  0  0
   21.1917   35.7042   36.4366 C   0  0  2  0  0  0  0  0  0  0  0  0
   22.2395   36.2264   37.2510 O   0  0  0  0  0  0  0  0  0  0  0  0
   23.1942   34.1293   38.9394 C   0  0  0  0  0  0  0  0  0  0  0  0
   24.0035   34.5344   37.7651 O   0  0  0  0  0  0  0  0  0  0  0  0
   19.6182   34.9879   39.7337 C   0  0  2  0  0  0  0  0  0  0  0  0
   20.6543   34.9925   40.7219 O   0  0  0  0  0  0  0  0  0  0  0  0
   21.8138   34.6703   35.4658 C   0  0  1  0  0  0  0  0  0  0  0  0
   22.3748   33.5914   36.2632 O   0  0  0  0  0  0  0  0  0  0  0  0
   19.9149   33.8722   38.7561 C   0  0  0  0  0  0  0  0  0  0  0  0
   22.6518   32.2841   40.5765 C   0  0  0  0  0  0  0  0  0  0  0  0
   22.5394   29.4591   37.9433 C   0  0  0  0  0  0  0  0  0  0  0  0
  1  2  1  1  0  0  0
  1  6  1  0  0  0  0
  1 23  1  0  0  0  0
  3  4  1  6  0  0  0
  3  8  1  0  0  0  0
  3 30  1  0  0  0  0
  5  9  1  0  0  0  0
  5 27  1  0  0  0  0
  5 31  1  1  0  0  0
  6  7  1  6  0  0  0
  6 11  1  0  0  0  0
  8 13  1  0  0  0  0
  9 10  1  6  0  0  0
  9 15  1  0  0  0  0
 11 12  1  1  0  0  0
 11 17  1  0  0  0  0
 13 14  1  6  0  0  0
 13 19  1  0  0  0  0
 15 16  1  1  0  0  0
 15 20  1  0  0  0  0
 16 34  1  0  0  0  0
 17 18  1  1  0  0  0
 17 22  1  0  0  0  0
 19  2  1  1  0  0  0
 19 24  1  0  0  0  0
 20 21  1  1  0  0  0
 20 26  1  0  0  0  0
 20 33  1  0  0  0  0
 22 23  1  6  0  0  0
 22 28  1  0  0  0  0
 24 25  1  1  0  0  0
 24 30  1  0  0  0  0
 26 27  1  0  0  0  0
 28 29  1  1  0  0  0
 28 32  1  0  0  0  0
 30 31  1  1  0  0  0
M  END
>  <CHROM.1>
-178.09001135,39.03209744,-101.37173467,-67.99466862,149.40157985,-159.96440537
21.12727626,35.07303628,37.62443701,3.00550292,-0.93573683,1.43067399

>  <Name>
ligand

>  <RI>
0

>  <Rbt.Current_Directory>
/home/itssahil/PROJECTS/Mol_Feturizer/New_Systems/rnas/4p3s

>  <Rbt.Executable>
rbdock ($Id: //depot/dev/client3/rdock/2013.1/src/exe/rbdock.cxx#4 $)

>  <Rbt.Library>
libRbt.so (2013.1, Build901 2013/11/27)

>  <Rbt.Parameter_File>
/export/apps/rDock/src/rDock_2013.1_src/data/scripts/dock_solv.prm

>  <Rbt.Receptor>
prm/pocket_docking_8.prm

>  <SCORE>
-9.01065

>  <SCORE.INTER>
-6.35153

>  <SCORE.INTER.CONST>
1

>  <SCORE.INTER.POLAR>
0

>  <SCORE.INTER.ROT>
6

>  <SCORE.INTER.SOLV>
10.0924

>  <SCORE.INTER.VDW>
-15.1985

>  <SCORE.INTER.norm>
-0.18681

>  <SCORE.INTRA>
-2.65912

>  <SCORE.INTRA.DIHEDRAL>
-7.13576

>  <SCORE.INTRA.DIHEDRAL.0>
15.8194

>  <SCORE.INTRA.POLAR>
0

>  <SCORE.INTRA.POLAR.0>
0

>  <SCORE.INTRA.REPUL>
0

>  <SCORE.INTRA.REPUL.0>
0

>  <SCORE.INTRA.SOLV>
0.563857

>  <SCORE.INTRA.SOLV.lig_0>
-71.9159

>  <SCORE.INTRA.VDW>
0.626828

>  <SCORE.INTRA.VDW.0>
-3.53918

>  <SCORE.INTRA.norm>
-0.0782095

>  <SCORE.RESTR>
0

>  <SCORE.RESTR.CAVITY>
0

>  <SCORE.RESTR.norm>
0

>  <SCORE.SYSTEM>
0

>  <SCORE.SYSTEM.CONST>
0

>  <SCORE.SYSTEM.DIHEDRAL>
0

>  <SCORE.SYSTEM.SOLV>
0

>  <SCORE.SYSTEM.norm>
0

>  <SCORE.heavy>
34

>  <SCORE.norm>
-0.265019

>  <RMSD>
8.953

$$$$
ligand
 OpenBabel01301917533D
libRbt.so/2013.1/901 2013/11/27
 34 36  0  0  0  0  0  0  0  0999 V2000
   17.6267   31.0220   42.6501 C   0  0  2  0  0  0  0  0  0  0  0  0
   16.5089   31.2966   41.7995 O   0  0  0  0  0  0  0  0  0  0  0  0
   16.1310   27.3485   40.1650 C   0  0  2  0  0  0  0  0  0  0  0  0
   15.6377   26.1905   39.4072 N   0  0  0  0  0  0  0  0  0  0  0  0
   18.2490   28.8242   37.2941 C   0  0  2  0  0  0  0  0  0  0  0  0
   17.7009   32.1568   43.7399 C   0  0  2  0  0  0  0  0  0  0  0  0
   16.4591   32.2097   44.5280 N   0  0  0  0  0  0  0  0  0  0  0  0
   14.9435   27.8882   41.0412 C   0  0  0  0  0  0  0  0  0  0  0  0
   17.2789   28.5494   36.0781 C   0  0  2  0  0  0  0  0  0  0  0  0
   15.9573   28.9440   36.4039 O   0  0  0  0  0  0  0  0  0  0  0  0
   17.9650   33.5359   43.0637 C   0  0  1  0  0  0  0  0  0  0  0  0
   18.0335   34.5763   44.0564 O   0  0  0  0  0  0  0  0  0  0  0  0
   15.4767   29.1129   41.8646 C   0  0  2  0  0  0  0  0  0  0  0  0
   14.3959   29.6826   42.7189 N   0  0  0  0  0  0  0  0  0  0  0  0
   17.3242   27.0086   35.7525 C   0  0  1  0  0  0  0  0  0  0  0  0
   16.4071   26.6780   34.6432 N   0  0  0  0  0  0  0  0  0  0  0  0
   19.2767   33.4370   42.2502 C   0  0  2  0  0  0  0  0  0  0  0  0
   19.5445   34.6986   41.6300 O   0  0  0  0  0  0  0  0  0  0  0  0
   16.0089   30.2297   40.9165 C   0  0  2  0  0  0  0  0  0  0  0  0
   18.7884   26.6093   35.3849 C   0  0  1  0  0  0  0  0  0  0  0  0
   19.1735   27.3337   34.2212 O   0  0  0  0  0  0  0  0  0  0  0  0
   19.1245   32.2777   41.1737 C   0  0  2  0  0  0  0  0  0  0  0  0
   18.8378   30.9846   41.8339 O   0  0  0  0  0  0  0  0  0  0  0  0
   17.1336   29.6438   40.0201 C   0  0  2  0  0  0  0  0  0  0  0  0
   17.5804   30.6752   39.1424 O   0  0  0  0  0  0  0  0  0  0  0  0
   19.7271   26.9788   36.5781 C   0  0  0  0  0  0  0  0  0  0  0  0
   19.6186   28.4163   36.9246 O   0  0  0  0  0  0  0  0  0  0  0  0
   20.4014   32.0963   40.3035 C   0  0  2  0  0  0  0  0  0  0  0  0
   21.5527   32.0729   41.1544 O   0  0  0  0  0  0  0  0  0  0  0  0
   16.6241   28.4673   39.1514 C   0  0  1  0  0  0  0  0  0  0  0  0
   17.7464   27.9705   38.3714 O   0  0  0  0  0  0  0  0  0  0  0  0
   20.5813   33.2238   39.3110 C   0  0  0  0  0  0  0  0  0  0  0  0
   18.9198   25.1177   35.0736 C   0  0  0  0  0  0  0  0  0  0  0  0
   15.2380   25.9761   35.2273 C   0  0  0  0  0  0  0  0  0  0  0  0
  1  2  1  6  0  0  0
  1  6  1  0  0  0  0
  1 23  1  0  0  0  0
  3  4  1  6  0  0  0
  3  8  1  0  0  0  0
  3 30  1  0  0  0  0
  5  9  1  0  0  0  0
  5 27  1  0  0  0  0
  5 31  1  1  0  0  0
  6  7  1  6  0  0  0
  6 11  1  0  0  0  0
  8 13  1  0  0  0  0
  9 10  1  1  0  0  0
  9 15  1  0  0  0  0
 11 12  1  1  0  0  0
 11 17  1  0  0  0  0
 13 14  1  6  0  0  0
 13 19  1  0  0  0  0
 15 16  1  6  0  0  0
 15 20  1  0  0  0  0
 16 34  1  0  0  0  0
 17 18  1  6  0  0  0
 17 22  1  0  0  0  0
 19  2  1  1  0  0  0
 19 24  1  0  0  0  0
 20 21  1  6  0  0  0
 20 26  1  0  0  0  0
 20 33  1  0  0  0  0
 22 23  1  1  0  0  0
 22 28  1  0  0  0  0
 24 25  1  6  0  0  0
 24 30  1  0  0  0  0
 26 27  1  0  0  0  0
 28 29  1  1  0  0  0
 28 32  1  0  0  0  0
 30 31  1  1  0  0  0
M  END
>  <CHROM.1>
-164.76262656,64.51964836,-106.41522051,46.97246925,174.26117787,-82.05087236
17.73812936,29.76886076,39.50224445,1.47958572,0.59203639,0.90676632

>  <Name>
ligand

>  <RI>
0

>  <Rbt.Current_Directory>
/home/itssahil/PROJECTS/Mol_Feturizer/New_Systems/rnas/4p3s

>  <Rbt.Executable>
rbdock ($Id: //depot/dev/client3/rdock/2013.1/src/exe/rbdock.cxx#4 $)

>  <Rbt.Library>
libRbt.so (2013.1, Build901 2013/11/27)

>  <Rbt.Parameter_File>
/export/apps/rDock/src/rDock_2013.1_src/data/scripts/dock_solv.prm

>  <Rbt.Receptor>
prm/pocket_docking_8.prm

>  <SCORE>
-5.20095

>  <SCORE.INTER>
-1.69673

>  <SCORE.INTER.CONST>
1

>  <SCORE.INTER.POLAR>
0

>  <SCORE.INTER.ROT>
6

>  <SCORE.INTER.SOLV>
12.8545

>  <SCORE.INTER.VDW>
-13.016

>  <SCORE.INTER.norm>
-0.0499038

>  <SCORE.INTRA>
-3.50422

>  <SCORE.INTRA.DIHEDRAL>
-10.5934

>  <SCORE.INTRA.DIHEDRAL.0>
15.8194

>  <SCORE.INTRA.POLAR>
0

>  <SCORE.INTRA.POLAR.0>
0

>  <SCORE.INTRA.REPUL>
0

>  <SCORE.INTRA.REPUL.0>
0

>  <SCORE.INTRA.SOLV>
1.22382

>  <SCORE.INTRA.SOLV.lig_0>
-71.9159

>  <SCORE.INTRA.VDW>
1.18057

>  <SCORE.INTRA.VDW.0>
-3.53918

>  <SCORE.INTRA.norm>
-0.103065

>  <SCORE.RESTR>
0

>  <SCORE.RESTR.CAVITY>
0

>  <SCORE.RESTR.norm>
0

>  <SCORE.SYSTEM>
0

>  <SCORE.SYSTEM.CONST>
0

>  <SCORE.SYSTEM.DIHEDRAL>
0

>  <SCORE.SYSTEM.SOLV>
0

>  <SCORE.SYSTEM.norm>
0

>  <SCORE.heavy>
34

>  <SCORE.norm>
-0.152969

>  <RMSD>
8.962

$$$$
ligand
 OpenBabel01301917533D
libRbt.so/2013.1/901 2013/11/27
 34 36  0  0  0  0  0  0  0  0999 V2000
   21.5536   29.5149   35.8841 C   0  0  2  0  0  0  0  0  0  0  0  0
   20.4793   29.6017   36.8256 O   0  0  0  0  0  0  0  0  0  0  0  0
   16.6346   27.7084   36.6364 C   0  0  2  0  0  0  0  0  0  0  0  0
   15.2269   27.4311   36.3199 N   0  0  0  0  0  0  0  0  0  0  0  0
   17.4996   26.1995   33.2771 C   0  0  2  0  0  0  0  0  0  0  0  0
   22.9079   29.5081   36.6882 C   0  0  2  0  0  0  0  0  0  0  0  0
   22.9562   28.3744   37.6253 N   0  0  0  0  0  0  0  0  0  0  0  0
   16.7076   29.1408   37.2782 C   0  0  0  0  0  0  0  0  0  0  0  0
   16.6967   24.8784   32.9522 C   0  0  2  0  0  0  0  0  0  0  0  0
   15.3457   25.0108   33.3594 O   0  0  0  0  0  0  0  0  0  0  0  0
   23.0812   30.8500   37.4617 C   0  0  1  0  0  0  0  0  0  0  0  0
   24.3180   30.8481   38.1984 O   0  0  0  0  0  0  0  0  0  0  0  0
   18.2087   29.4282   37.6336 C   0  0  2  0  0  0  0  0  0  0  0  0
   18.3549   30.7802   38.2444 N   0  0  0  0  0  0  0  0  0  0  0  0
   17.3837   23.6855   33.7185 C   0  0  1  0  0  0  0  0  0  0  0  0
   16.6563   22.4216   33.4850 N   0  0  0  0  0  0  0  0  0  0  0  0
   23.0269   32.0114   36.4418 C   0  0  2  0  0  0  0  0  0  0  0  0
   23.1966   33.2541   37.1311 O   0  0  0  0  0  0  0  0  0  0  0  0
   19.1046   29.3526   36.3604 C   0  0  2  0  0  0  0  0  0  0  0  0
   18.8640   23.5577   33.2383 C   0  0  1  0  0  0  0  0  0  0  0  0
   18.8611   23.2644   31.8450 O   0  0  0  0  0  0  0  0  0  0  0  0
   21.6359   31.9541   35.6751 C   0  0  2  0  0  0  0  0  0  0  0  0
   21.4753   30.6585   34.9782 O   0  0  0  0  0  0  0  0  0  0  0  0
   18.9560   27.9478   35.7154 C   0  0  2  0  0  0  0  0  0  0  0  0
   19.7596   27.9159   34.5377 O   0  0  0  0  0  0  0  0  0  0  0  0
   19.5972   24.9132   33.4964 C   0  0  0  0  0  0  0  0  0  0  0  0
   18.8981   26.0396   32.8327 O   0  0  0  0  0  0  0  0  0  0  0  0
   21.4869   33.0860   34.6182 C   0  0  2  0  0  0  0  0  0  0  0  0
   20.2115   32.9688   33.9781 O   0  0  0  0  0  0  0  0  0  0  0  0
   17.4926   27.6558   35.3010 C   0  0  1  0  0  0  0  0  0  0  0  0
   17.4483   26.3170   34.7350 O   0  0  0  0  0  0  0  0  0  0  0  0
   22.5520   33.0109   33.5466 C   0  0  0  0  0  0  0  0  0  0  0  0
   19.6082   22.4293   33.9536 C   0  0  0  0  0  0  0  0  0  0  0  0
   15.5039   22.3929   34.4187 C   0  0  0  0  0  0  0  0  0  0  0  0
  1  2  1  1  0  0  0
  1  6  1  0  0  0  0
  1 23  1  0  0  0  0
  3  4  1  6  0  0  0
  3  8  1  0  0  0  0
  3 30  1  0  0  0  0
  5  9  1  0  0  0  0
  5 27  1  0  0  0  0
  5 31  1  1  0  0  0
  6  7  1  1  0  0  0
  6 11  1  0  0  0  0
  8 13  1  0  0  0  0
  9 10  1  1  0  0  0
  9 15  1  0  0  0  0
 11 12  1  6  0  0  0
 11 17  1  0  0  0  0
 13 14  1  6  0  0  0
 13 19  1  0  0  0  0
 15 16  1  6  0  0  0
 15 20  1  0  0  0  0
 16 34  1  0  0  0  0
 17 18  1  1  0  0  0
 17 22  1  0  0  0  0
 19  2  1  1  0  0  0
 19 24  1  0  0  0  0
 20 21  1  6  0  0  0
 20 26  1  0  0  0  0
 20 33  1  0  0  0  0
 22 23  1  6  0  0  0
 22 28  1  0  0  0  0
 24 25  1  6  0  0  0
 24 30  1  0  0  0  0
 26 27  1  0  0  0  0
 28 29  1  6  0  0  0
 28 32  1  0  0  0  0
 30 31  1  1  0  0  0
M  END
>  <CHROM.1>
-167.75865754,176.21200654,-81.95929801,-179.77839371,147.28550985,-150.66427717
19.47790342,28.06647885,35.22026479,-0.99943629,-0.23053519,-2.65991894

>  <Name>
ligand

>  <RI>
0

>  <Rbt.Current_Directory>
/home/itssahil/PROJECTS/Mol_Feturizer/New_Systems/rnas/4p3s

>  <Rbt.Executable>
rbdock ($Id: //depot/dev/client3/rdock/2013.1/src/exe/rbdock.cxx#4 $)

>  <Rbt.Library>
libRbt.so (2013.1, Build901 2013/11/27)

>  <Rbt.Parameter_File>
/export/apps/rDock/src/rDock_2013.1_src/data/scripts/dock_solv.prm

>  <Rbt.Receptor>
prm/pocket_docking_3.prm

>  <SCORE>
-8.06092

>  <SCORE.INTER>
-6.29561

>  <SCORE.INTER.CONST>
1

>  <SCORE.INTER.POLAR>
0

>  <SCORE.INTER.ROT>
6

>  <SCORE.INTER.SOLV>
13.7636

>  <SCORE.INTER.VDW>
-16.3849

>  <SCORE.INTER.norm>
-0.185165

>  <SCORE.INTRA>
-2.30107

>  <SCORE.INTRA.DIHEDRAL>
-7.07913

>  <SCORE.INTRA.DIHEDRAL.0>
15.8194

>  <SCORE.INTRA.POLAR>
0

>  <SCORE.INTRA.POLAR.0>
0

>  <SCORE.INTRA.REPUL>
0

>  <SCORE.INTRA.REPUL.0>
0

>  <SCORE.INTRA.SOLV>
-1.60556

>  <SCORE.INTRA.SOLV.lig_0>
-71.9159

>  <SCORE.INTRA.VDW>
2.04127

>  <SCORE.INTRA.VDW.0>
-3.53918

>  <SCORE.INTRA.norm>
-0.0676787

>  <SCORE.RESTR>
0.535765

>  <SCORE.RESTR.CAVITY>
0.535765

>  <SCORE.RESTR.norm>
0.0157578

>  <SCORE.SYSTEM>
0

>  <SCORE.SYSTEM.CONST>
0

>  <SCORE.SYSTEM.DIHEDRAL>
0

>  <SCORE.SYSTEM.SOLV>
0

>  <SCORE.SYSTEM.norm>
0

>  <SCORE.heavy>
34

>  <SCORE.norm>
-0.237086

>  <RMSD>
8.964

$$$$
ligand
 OpenBabel01301917533D
libRbt.so/2013.1/901 2013/11/27
 34 36  0  0  0  0  0  0  0  0999 V2000
   18.1470   28.0938   38.0840 C   0  0  2  0  0  0  0  0  0  0  0  0
   18.1314   28.5581   36.7303 O   0  0  0  0  0  0  0  0  0  0  0  0
   15.6445   25.4335   35.1638 C   0  0  2  0  0  0  0  0  0  0  0  0
   14.7567   24.6624   34.2829 N   0  0  0  0  0  0  0  0  0  0  0  0
   17.1783   23.4535   33.2001 C   0  0  2  0  0  0  0  0  0  0  0  0
   18.3975   29.3338   39.0223 C   0  0  2  0  0  0  0  0  0  0  0  0
   17.3475   30.3492   38.8418 N   0  0  0  0  0  0  0  0  0  0  0  0
   14.9827   26.8392   35.3986 C   0  0  0  0  0  0  0  0  0  0  0  0
   17.7715   22.0195   33.4954 C   0  0  2  0  0  0  0  0  0  0  0  0
   17.2782   21.5274   34.7295 O   0  0  0  0  0  0  0  0  0  0  0  0
   19.7976   29.9540   38.7324 C   0  0  1  0  0  0  0  0  0  0  0  0
   20.0307   31.0880   39.5879 O   0  0  0  0  0  0  0  0  0  0  0  0
   15.9221   27.6548   36.3550 C   0  0  2  0  0  0  0  0  0  0  0  0
   15.3567   29.0088   36.6182 N   0  0  0  0  0  0  0  0  0  0  0  0
   19.3419   22.1383   33.5433 C   0  0  1  0  0  0  0  0  0  0  0  0
   19.9591   20.8329   33.8530 N   0  0  0  0  0  0  0  0  0  0  0  0
   20.8686   28.8568   38.9357 C   0  0  2  0  0  0  0  0  0  0  0  0
   22.1648   29.4095   38.6859 O   0  0  0  0  0  0  0  0  0  0  0  0
   17.3423   27.8155   35.7334 C   0  0  2  0  0  0  0  0  0  0  0  0
   19.8540   22.6691   32.1670 C   0  0  1  0  0  0  0  0  0  0  0  0
   19.4976   21.7270   31.1607 O   0  0  0  0  0  0  0  0  0  0  0  0
   20.5518   27.6453   37.9569 C   0  0  2  0  0  0  0  0  0  0  0  0
   19.2042   27.0951   38.2241 O   0  0  0  0  0  0  0  0  0  0  0  0
   17.9378   26.4090   35.4528 C   0  0  2  0  0  0  0  0  0  0  0  0
   19.2214   26.5844   34.8566 O   0  0  0  0  0  0  0  0  0  0  0  0
   19.1759   24.0458   31.8728 C   0  0  0  0  0  0  0  0  0  0  0  0
   17.6976   23.9368   31.9057 O   0  0  0  0  0  0  0  0  0  0  0  0
   21.5769   26.4828   38.0906 C   0  0  2  0  0  0  0  0  0  0  0  0
   21.7548   26.1677   39.4760 O   0  0  0  0  0  0  0  0  0  0  0  0
   17.0616   25.5985   34.4660 C   0  0  1  0  0  0  0  0  0  0  0  0
   17.6812   24.2952   34.2867 O   0  0  0  0  0  0  0  0  0  0  0  0
   22.9302   26.8459   37.5204 C   0  0  0  0  0  0  0  0  0  0  0  0
   21.3744   22.8317   32.1399 C   0  0  0  0  0  0  0  0  0  0  0  0
   20.2167   20.7985   35.3136 C   0  0  0  0  0  0  0  0  0  0  0  0
  1  2  1  6  0  0  0
  1  6  1  0  0  0  0
  1 23  1  0  0  0  0
  3  4  1  6  0  0  0
  3  8  1  0  0  0  0
  3 30  1  0  0  0  0
  5  9  1  0  0  0  0
  5 27  1  0  0  0  0
  5 31  1  1  0  0  0
  6  7  1  6  0  0  0
  6 11  1  0  0  0  0
  8 13  1  0  0  0  0
  9 10  1  1  0  0  0
  9 15  1  0  0  0  0
 11 12  1  1  0  0  0
 11 17  1  0  0  0  0
 13 14  1  6  0  0  0
 13 19  1  0  0  0  0
 15 16  1  6  0  0  0
 15 20  1  0  0  0  0
 16 34  1  0  0  0  0
 17 18  1  6  0  0  0
 17 22  1  0  0  0  0
 19  2  1  1  0  0  0
 19 24  1  0  0  0  0
 20 21  1  6  0  0  0
 20 26  1  0  0  0  0
 20 33  1  0  0  0  0
 22 23  1  1  0  0  0
 22 28  1  0  0  0  0
 24 25  1  6  0  0  0
 24 30  1  0  0  0  0
 26 27  1  0  0  0  0
 28 29  1  1  0  0  0
 28 32  1  0  0  0  0
 30 31  1  1  0  0  0
M  END
>  <CHROM.1>
-152.12691724,50.95069020,-96.08612206,48.27719183,76.31382882,-166.13177180
18.75535306,25.87403861,35.76392630,1.46332083,-0.30929914,0.66545835

>  <Name>
ligand

>  <RI>
0

>  <Rbt.Current_Directory>
/home/itssahil/PROJECTS/Mol_Feturizer/New_Systems/rnas/4p3s

>  <Rbt.Executable>
rbdock ($Id: //depot/dev/client3/rdock/2013.1/src/exe/rbdock.cxx#4 $)

>  <Rbt.Library>
libRbt.so (2013.1, Build901 2013/11/27)

>  <Rbt.Parameter_File>
/export/apps/rDock/src/rDock_2013.1_src/data/scripts/dock_solv.prm

>  <Rbt.Receptor>
prm/pocket_docking_6.prm

>  <SCORE>
-16.5099

>  <SCORE.INTER>
-14.2029

>  <SCORE.INTER.CONST>
1

>  <SCORE.INTER.POLAR>
0

>  <SCORE.INTER.ROT>
6

>  <SCORE.INTER.SOLV>
14.4276

>  <SCORE.INTER.VDW>
-21.8778

>  <SCORE.INTER.norm>
-0.417732

>  <SCORE.INTRA>
-2.307

>  <SCORE.INTRA.DIHEDRAL>
-8.73565

>  <SCORE.INTRA.DIHEDRAL.0>
15.8194

>  <SCORE.INTRA.POLAR>
0

>  <SCORE.INTRA.POLAR.0>
0

>  <SCORE.INTRA.REPUL>
0

>  <SCORE.INTRA.REPUL.0>
0

>  <SCORE.INTRA.SOLV>
2.16276

>  <SCORE.INTRA.SOLV.lig_0>
-71.9159

>  <SCORE.INTRA.VDW>
0.979438

>  <SCORE.INTRA.VDW.0>
-3.53918

>  <SCORE.INTRA.norm>
-0.067853

>  <SCORE.RESTR>
0

>  <SCORE.RESTR.CAVITY>
0

>  <SCORE.RESTR.norm>
0

>  <SCORE.SYSTEM>
0

>  <SCORE.SYSTEM.CONST>
0

>  <SCORE.SYSTEM.DIHEDRAL>
0

>  <SCORE.SYSTEM.SOLV>
0

>  <SCORE.SYSTEM.norm>
0

>  <SCORE.heavy>
34

>  <SCORE.norm>
-0.485585

>  <RMSD>
8.980

$$$$
ligand
 OpenBabel01301917533D
libRbt.so/2013.1/901 2013/11/27
 34 36  0  0  0  0  0  0  0  0999 V2000
   20.0977   36.9731   31.3491 C   0  0  2  0  0  0  0  0  0  0  0  0
   20.2336   35.5484   31.3545 O   0  0  0  0  0  0  0  0  0  0  0  0
   22.1742   32.7762   33.9909 C   0  0  2  0  0  0  0  0  0  0  0  0
   23.2093   32.0338   34.7231 N   0  0  0  0  0  0  0  0  0  0  0  0
   22.5686   35.3565   36.6828 C   0  0  2  0  0  0  0  0  0  0  0  0
   18.7809   37.3347   30.5642 C   0  0  2  0  0  0  0  0  0  0  0  0
   17.6062   36.7112   31.1945 N   0  0  0  0  0  0  0  0  0  0  0  0
   22.5058   32.6741   32.4583 C   0  0  0  0  0  0  0  0  0  0  0  0
   23.9036   34.6207   37.0972 C   0  0  2  0  0  0  0  0  0  0  0  0
   24.6722   34.3109   35.9475 O   0  0  0  0  0  0  0  0  0  0  0  0
   18.8971   36.8779   29.0787 C   0  0  1  0  0  0  0  0  0  0  0  0
   17.6953   37.2064   28.3575 O   0  0  0  0  0  0  0  0  0  0  0  0
   21.3891   33.4509   31.6761 C   0  0  2  0  0  0  0  0  0  0  0  0
   21.6439   33.4009   30.2081 N   0  0  0  0  0  0  0  0  0  0  0  0
   23.5182   33.3019   37.8682 C   0  0  1  0  0  0  0  0  0  0  0  0
   24.7266   32.5454   38.2535 N   0  0  0  0  0  0  0  0  0  0  0  0
   20.1394   37.5564   28.4555 C   0  0  2  0  0  0  0  0  0  0  0  0
   20.2577   37.1593   27.0857 O   0  0  0  0  0  0  0  0  0  0  0  0
   21.3318   34.9422   32.1256 C   0  0  2  0  0  0  0  0  0  0  0  0
   22.6853   33.6779   39.1344 C   0  0  1  0  0  0  0  0  0  0  0  0
   23.4964   34.4831   39.9836 O   0  0  0  0  0  0  0  0  0  0  0  0
   21.4234   37.1434   29.2963 C   0  0  2  0  0  0  0  0  0  0  0  0
   21.2769   37.5532   30.7108 O   0  0  0  0  0  0  0  0  0  0  0  0
   21.0698   35.0037   33.6549 C   0  0  2  0  0  0  0  0  0  0  0  0
   21.0535   36.3754   34.0449 O   0  0  0  0  0  0  0  0  0  0  0  0
   21.4211   34.4800   38.6873 C   0  0  0  0  0  0  0  0  0  0  0  0
   21.7940   35.6780   37.8974 O   0  0  0  0  0  0  0  0  0  0  0  0
   22.7308   37.7832   28.7471 C   0  0  2  0  0  0  0  0  0  0  0  0
   23.7879   37.5808   29.6914 O   0  0  0  0  0  0  0  0  0  0  0  0
   22.1860   34.2935   34.4599 C   0  0  1  0  0  0  0  0  0  0  0  0
   21.8422   34.3796   35.8703 O   0  0  0  0  0  0  0  0  0  0  0  0
   22.5879   39.2726   28.5235 C   0  0  0  0  0  0  0  0  0  0  0  0
   22.2539   32.4448   39.9295 C   0  0  0  0  0  0  0  0  0  0  0  0
   24.6032   31.1854   37.6739 C   0  0  0  0  0  0  0  0  0  0  0  0
  1  2  1  6  0  0  0
  1  6  1  0  0  0  0
  1 23  1  0  0  0  0
  3  4  1  1  0  0  0
  3  8  1  0  0  0  0
  3 30  1  0  0  0  0
  5  9  1  0  0  0  0
  5 27  1  0  0  0  0
  5 31  1  6  0  0  0
  6  7  1  1  0  0  0
  6 11  1  0  0  0  0
  8 13  1  0  0  0  0
  9 10  1  6  0  0  0
  9 15  1  0  0  0  0
 11 12  1  6  0  0  0
 11 17  1  0  0  0  0
 13 14  1  6  0  0  0
 13 19  1  0  0  0  0
 15 16  1  1  0  0  0
 15 20  1  0  0  0  0
 16 34  1  0  0  0  0
 17 18  1  6  0  0  0
 17 22  1  0  0  0  0
 19  2  1  6  0  0  0
 19 24  1  0  0  0  0
 20 21  1  1  0  0  0
 20 26  1  0  0  0  0
 20 33  1  0  0  0  0
 22 23  1  1  0  0  0
 22 28  1  0  0  0  0
 24 25  1  1  0  0  0
 24 30  1  0  0  0  0
 26 27  1  0  0  0  0
 28 29  1  1  0  0  0
 28 32  1  0  0  0  0
 30 31  1  1  0  0  0
M  END
>  <CHROM.1>
-174.95181909,-167.87918682,-123.32713313,168.94525324,140.97003241,-83.98101201
21.75994069,35.20526313,33.43623871,1.90217536,0.53281323,-1.34770145

>  <Name>
ligand

>  <RI>
0

>  <Rbt.Current_Directory>
/home/itssahil/PROJECTS/Mol_Feturizer/New_Systems/rnas/4p3s

>  <Rbt.Executable>
rbdock ($Id: //depot/dev/client3/rdock/2013.1/src/exe/rbdock.cxx#4 $)

>  <Rbt.Library>
libRbt.so (2013.1, Build901 2013/11/27)

>  <Rbt.Parameter_File>
/export/apps/rDock/src/rDock_2013.1_src/data/scripts/dock_solv.prm

>  <Rbt.Receptor>
prm/blind_docking_100.prm

>  <SCORE>
-2.07489

>  <SCORE.INTER>
-3.86702

>  <SCORE.INTER.CONST>
1

>  <SCORE.INTER.POLAR>
0

>  <SCORE.INTER.ROT>
6

>  <SCORE.INTER.SOLV>
14.6121

>  <SCORE.INTER.VDW>
-15.0487

>  <SCORE.INTER.norm>
-0.113736

>  <SCORE.INTRA>
-1.64122

>  <SCORE.INTRA.DIHEDRAL>
-5.66014

>  <SCORE.INTRA.DIHEDRAL.0>
15.8194

>  <SCORE.INTRA.POLAR>
0

>  <SCORE.INTRA.POLAR.0>
0

>  <SCORE.INTRA.REPUL>
0

>  <SCORE.INTRA.REPUL.0>
0

>  <SCORE.INTRA.SOLV>
1.65864

>  <SCORE.INTRA.SOLV.lig_0>
-71.9159

>  <SCORE.INTRA.VDW>
0.35953

>  <SCORE.INTRA.VDW.0>
-3.53918

>  <SCORE.INTRA.norm>
-0.0482712

>  <SCORE.RESTR>
3.43336

>  <SCORE.RESTR.CAVITY>
3.43336

>  <SCORE.RESTR.norm>
0.100981

>  <SCORE.SYSTEM>
0

>  <SCORE.SYSTEM.CONST>
0

>  <SCORE.SYSTEM.DIHEDRAL>
0

>  <SCORE.SYSTEM.SOLV>
0

>  <SCORE.SYSTEM.norm>
0

>  <SCORE.heavy>
34

>  <SCORE.norm>
-0.0610261

>  <RMSD>
8.990

$$$$
ligand
 OpenBabel01301917533D
libRbt.so/2013.1/901 2013/11/27
 34 36  0  0  0  0  0  0  0  0999 V2000
   22.7702   30.4641   36.9647 C   0  0  2  0  0  0  0  0  0  0  0  0
   21.4194   30.4825   37.4371 O   0  0  0  0  0  0  0  0  0  0  0  0
   17.5335   29.7597   35.7698 C   0  0  2  0  0  0  0  0  0  0  0  0
   16.3442   29.8383   34.9108 N   0  0  0  0  0  0  0  0  0  0  0  0
   17.8466   26.9439   35.4205 C   0  0  2  0  0  0  0  0  0  0  0  0
   23.7149   30.2042   38.1979 C   0  0  2  0  0  0  0  0  0  0  0  0
   23.3844   28.9281   38.8524 N   0  0  0  0  0  0  0  0  0  0  0  0
   17.8390   31.2078   36.2979 C   0  0  0  0  0  0  0  0  0  0  0  0
   18.7634   25.6574   35.4151 C   0  0  2  0  0  0  0  0  0  0  0  0
   20.0644   25.9782   35.8764 O   0  0  0  0  0  0  0  0  0  0  0  0
   23.6007   31.3754   39.2197 C   0  0  1  0  0  0  0  0  0  0  0  0
   24.4626   31.1418   40.3488 O   0  0  0  0  0  0  0  0  0  0  0  0
   19.0978   31.1195   37.2306 C   0  0  2  0  0  0  0  0  0  0  0  0
   19.4508   32.4653   37.7660 N   0  0  0  0  0  0  0  0  0  0  0  0
   18.8272   25.1063   33.9404 C   0  0  1  0  0  0  0  0  0  0  0  0
   19.7021   23.9193   33.8597 N   0  0  0  0  0  0  0  0  0  0  0  0
   23.9577   32.6932   38.4929 C   0  0  2  0  0  0  0  0  0  0  0  0
   23.8707   33.7816   39.4180 O   0  0  0  0  0  0  0  0  0  0  0  0
   20.3240   30.5497   36.4554 C   0  0  2  0  0  0  0  0  0  0  0  0
   17.3823   24.7501   33.4676 C   0  0  1  0  0  0  0  0  0  0  0  0
   16.8708   23.7272   34.3158 O   0  0  0  0  0  0  0  0  0  0  0  0
   22.9638   32.8871   37.2679 C   0  0  2  0  0  0  0  0  0  0  0  0
   23.0612   31.7471   36.3293 O   0  0  0  0  0  0  0  0  0  0  0  0
   19.9638   29.1485   35.8912 C   0  0  2  0  0  0  0  0  0  0  0  0
   21.0893   28.6642   35.1613 O   0  0  0  0  0  0  0  0  0  0  0  0
   16.4876   26.0268   33.5725 C   0  0  0  0  0  0  0  0  0  0  0  0
   16.4964   26.5800   34.9480 O   0  0  0  0  0  0  0  0  0  0  0  0
   23.2468   34.1903   36.4668 C   0  0  2  0  0  0  0  0  0  0  0  0
   24.6617   34.3623   36.3304 O   0  0  0  0  0  0  0  0  0  0  0  0
   18.7583   29.2103   34.9210 C   0  0  1  0  0  0  0  0  0  0  0  0
   18.4807   27.8566   34.4681 O   0  0  0  0  0  0  0  0  0  0  0  0
   22.6953   35.4174   37.1587 C   0  0  0  0  0  0  0  0  0  0  0  0
   17.3573   24.2245   32.0316 C   0  0  0  0  0  0  0  0  0  0  0  0
   20.5163   24.0503   32.6266 C   0  0  0  0  0  0  0  0  0  0  0  0
  1  2  1  1  0  0  0
  1  6  1  0  0  0  0
  1 23  1  0  0  0  0
  3  4  1  6  0  0  0
  3  8  1  0  0  0  0
  3 30  1  0  0  0  0
  5  9  1  0  0  0  0
  5 27  1  0  0  0  0
  5 31  1  6  0  0  0
  6  7  1  1  0  0  0
  6 11  1  0  0  0  0
  8 13  1  0  0  0  0
  9 10  1  6  0  0  0
  9 15  1  0  0  0  0
 11 12  1  1  0  0  0
 11 17  1  0  0  0  0
 13 14  1  6  0  0  0
 13 19  1  0  0  0  0
 15 16  1  1  0  0  0
 15 20  1  0  0  0  0
 16 34  1  0  0  0  0
 17 18  1  1  0  0  0
 17 22  1  0  0  0  0
 19  2  1  1  0  0  0
 19 24  1  0  0  0  0
 20 21  1  1  0  0  0
 20 26  1  0  0  0  0
 20 33  1  0  0  0  0
 22 23  1  6  0  0  0
 22 28  1  0  0  0  0
 24 25  1  6  0  0  0
 24 30  1  0  0  0  0
 26 27  1  0  0  0  0
 28 29  1  1  0  0  0
 28 32  1  0  0  0  0
 30 31  1  1  0  0  0
M  END
>  <CHROM.1>
-172.82753483,-157.85318941,-138.01322221,41.07585360,-41.66127881,-128.23726491
20.40852735,29.24617391,36.08269356,-0.95594019,0.35840870,-2.88715824

>  <Name>
ligand

>  <RI>
0

>  <Rbt.Current_Directory>
/home/itssahil/PROJECTS/Mol_Feturizer/New_Systems/rnas/4p3s

>  <Rbt.Executable>
rbdock ($Id: //depot/dev/client3/rdock/2013.1/src/exe/rbdock.cxx#4 $)

>  <Rbt.Library>
libRbt.so (2013.1, Build901 2013/11/27)

>  <Rbt.Parameter_File>
/export/apps/rDock/src/rDock_2013.1_src/data/scripts/dock_solv.prm

>  <Rbt.Receptor>
prm/pocket_docking_3.prm

>  <SCORE>
-6.34667

>  <SCORE.INTER>
-7.12447

>  <SCORE.INTER.CONST>
1

>  <SCORE.INTER.POLAR>
0

>  <SCORE.INTER.ROT>
6

>  <SCORE.INTER.SOLV>
15.4032

>  <SCORE.INTER.VDW>
-17.484

>  <SCORE.INTER.norm>
-0.209543

>  <SCORE.INTRA>
0.231798

>  <SCORE.INTRA.DIHEDRAL>
-2.82512

>  <SCORE.INTRA.DIHEDRAL.0>
15.8194

>  <SCORE.INTRA.POLAR>
0

>  <SCORE.INTRA.POLAR.0>
0

>  <SCORE.INTRA.REPUL>
0

>  <SCORE.INTRA.REPUL.0>
0

>  <SCORE.INTRA.SOLV>
1.05088

>  <SCORE.INTRA.SOLV.lig_0>
-71.9159

>  <SCORE.INTRA.VDW>
1.11892

>  <SCORE.INTRA.VDW.0>
-3.53918

>  <SCORE.INTRA.norm>
0.0068176

>  <SCORE.RESTR>
0.545998

>  <SCORE.RESTR.CAVITY>
0.545998

>  <SCORE.RESTR.norm>
0.0160588

>  <SCORE.SYSTEM>
0

>  <SCORE.SYSTEM.CONST>
0

>  <SCORE.SYSTEM.DIHEDRAL>
0

>  <SCORE.SYSTEM.SOLV>
0

>  <SCORE.SYSTEM.norm>
0

>  <SCORE.heavy>
34

>  <SCORE.norm>
-0.186667

>  <RMSD>
8.994

$$$$
ligand
 OpenBabel01301917533D
libRbt.so/2013.1/901 2013/11/27
 34 36  0  0  0  0  0  0  0  0999 V2000
   17.7476   28.6229   38.1504 C   0  0  2  0  0  0  0  0  0  0  0  0
   17.6958   29.0428   36.7832 O   0  0  0  0  0  0  0  0  0  0  0  0
   15.8983   25.4678   35.2372 C   0  0  2  0  0  0  0  0  0  0  0  0
   15.2115   24.5193   34.3499 N   0  0  0  0  0  0  0  0  0  0  0  0
   19.2544   24.7369   33.5431 C   0  0  2  0  0  0  0  0  0  0  0  0
   18.1726   29.8616   39.0255 C   0  0  2  0  0  0  0  0  0  0  0  0
   17.2167   30.9693   38.8665 N   0  0  0  0  0  0  0  0  0  0  0  0
   14.9826   26.7364   35.3825 C   0  0  0  0  0  0  0  0  0  0  0  0
   18.6030   24.3350   32.1613 C   0  0  2  0  0  0  0  0  0  0  0  0
   17.6219   25.2858   31.7845 O   0  0  0  0  0  0  0  0  0  0  0  0
   19.6061   30.3311   38.6336 C   0  0  1  0  0  0  0  0  0  0  0  0
   19.9986   31.4635   39.4311 O   0  0  0  0  0  0  0  0  0  0  0  0
   15.7081   27.7405   36.3457 C   0  0  2  0  0  0  0  0  0  0  0  0
   14.8950   28.9769   36.5258 N   0  0  0  0  0  0  0  0  0  0  0  0
   17.9495   22.9105   32.3226 C   0  0  1  0  0  0  0  0  0  0  0  0
   17.2886   22.4899   31.0706 N   0  0  0  0  0  0  0  0  0  0  0  0
   20.5764   29.1407   38.8173 C   0  0  2  0  0  0  0  0  0  0  0  0
   21.9026   29.5546   38.4739 O   0  0  0  0  0  0  0  0  0  0  0  0
   17.1068   28.1365   35.7833 C   0  0  2  0  0  0  0  0  0  0  0  0
   19.0569   21.8853   32.7239 C   0  0  1  0  0  0  0  0  0  0  0  0
   20.0197   21.8303   31.6764 O   0  0  0  0  0  0  0  0  0  0  0  0
   20.0858   27.9356   37.9044 C   0  0  2  0  0  0  0  0  0  0  0  0
   18.7099   27.5299   38.2680 O   0  0  0  0  0  0  0  0  0  0  0  0
   17.9599   26.8535   35.5894 C   0  0  2  0  0  0  0  0  0  0  0  0
   19.2204   27.2399   35.0456 O   0  0  0  0  0  0  0  0  0  0  0  0
   19.7350   22.3666   34.0467 C   0  0  0  0  0  0  0  0  0  0  0  0
   20.2793   23.7385   33.9057 O   0  0  0  0  0  0  0  0  0  0  0  0
   21.0001   26.6825   38.0238 C   0  0  2  0  0  0  0  0  0  0  0  0
   21.1723   26.3542   39.4068 O   0  0  0  0  0  0  0  0  0  0  0  0
   17.2971   25.8649   34.5985 C   0  0  1  0  0  0  0  0  0  0  0  0
   18.1500   24.6911   34.5024 O   0  0  0  0  0  0  0  0  0  0  0  0
   22.3711   26.9167   37.4287 C   0  0  0  0  0  0  0  0  0  0  0  0
   18.4961   20.4761   32.9198 C   0  0  0  0  0  0  0  0  0  0  0  0
   15.8943   22.1131   31.4090 C   0  0  0  0  0  0  0  0  0  0  0  0
  1  2  1  6  0  0  0
  1  6  1  0  0  0  0
  1 23  1  0  0  0  0
  3  4  1  6  0  0  0
  3  8  1  0  0  0  0
  3 30  1  0  0  0  0
  5  9  1  0  0  0  0
  5 27  1  0  0  0  0
  5 31  1  1  0  0  0
  6  7  1  6  0  0  0
  6 11  1  0  0  0  0
  8 13  1  0  0  0  0
  9 10  1  1  0  0  0
  9 15  1  0  0  0  0
 11 12  1  1  0  0  0
 11 17  1  0  0  0  0
 13 14  1  6  0  0  0
 13 19  1  0  0  0  0
 15 16  1  6  0  0  0
 15 20  1  0  0  0  0
 16 34  1  0  0  0  0
 17 18  1  6  0  0  0
 17 22  1  0  0  0  0
 19  2  1  1  0  0  0
 19 24  1  0  0  0  0
 20 21  1  6  0  0  0
 20 26  1  0  0  0  0
 20 33  1  0  0  0  0
 22 23  1  1  0  0  0
 22 28  1  0  0  0  0
 24 25  1  6  0  0  0
 24 30  1  0  0  0  0
 26 27  1  0  0  0  0
 28 29  1  1  0  0  0
 28 32  1  0  0  0  0
 30 31  1  1  0  0  0
M  END
>  <CHROM.1>
-169.87861879,52.17003940,-126.97382216,51.28054712,158.98883192,-83.59808375
18.48341617,26.25163186,35.59116752,1.42829319,-0.30981451,0.69505473

>  <Name>
ligand

>  <RI>
0

>  <Rbt.Current_Directory>
/home/itssahil/PROJECTS/Mol_Feturizer/New_Systems/rnas/4p3s

>  <Rbt.Executable>
rbdock ($Id: //depot/dev/client3/rdock/2013.1/src/exe/rbdock.cxx#4 $)

>  <Rbt.Library>
libRbt.so (2013.1, Build901 2013/11/27)

>  <Rbt.Parameter_File>
/export/apps/rDock/src/rDock_2013.1_src/data/scripts/dock_solv.prm

>  <Rbt.Receptor>
prm/pocket_docking_4.prm

>  <SCORE>
-12.2788

>  <SCORE.INTER>
-9.58832

>  <SCORE.INTER.CONST>
1

>  <SCORE.INTER.POLAR>
0

>  <SCORE.INTER.ROT>
6

>  <SCORE.INTER.SOLV>
14.6515

>  <SCORE.INTER.VDW>
-18.876

>  <SCORE.INTER.norm>
-0.282009

>  <SCORE.INTRA>
-2.69548

>  <SCORE.INTRA.DIHEDRAL>
-9.16024

>  <SCORE.INTRA.DIHEDRAL.0>
15.8194

>  <SCORE.INTRA.POLAR>
0

>  <SCORE.INTRA.POLAR.0>
0

>  <SCORE.INTRA.REPUL>
0

>  <SCORE.INTRA.REPUL.0>
0

>  <SCORE.INTRA.SOLV>
1.90863

>  <SCORE.INTRA.SOLV.lig_0>
-71.9159

>  <SCORE.INTRA.VDW>
0.930324

>  <SCORE.INTRA.VDW.0>
-3.53918

>  <SCORE.INTRA.norm>
-0.0792788

>  <SCORE.RESTR>
0.00500909

>  <SCORE.RESTR.CAVITY>
0.00500909

>  <SCORE.RESTR.norm>
0.000147326

>  <SCORE.SYSTEM>
0

>  <SCORE.SYSTEM.CONST>
0

>  <SCORE.SYSTEM.DIHEDRAL>
0

>  <SCORE.SYSTEM.SOLV>
0

>  <SCORE.SYSTEM.norm>
0

>  <SCORE.heavy>
34

>  <SCORE.norm>
-0.361141

>  <RMSD>
8.995

$$$$
ligand
 OpenBabel01301917533D
libRbt.so/2013.1/901 2013/11/27
 34 36  0  0  0  0  0  0  0  0999 V2000
   21.1475   28.4636   36.3331 C   0  0  2  0  0  0  0  0  0  0  0  0
   19.8331   28.6499   36.8677 O   0  0  0  0  0  0  0  0  0  0  0  0
   16.1193   26.8670   35.6713 C   0  0  2  0  0  0  0  0  0  0  0  0
   14.8745   26.5845   34.9438 N   0  0  0  0  0  0  0  0  0  0  0  0
   16.7357   24.7623   33.1269 C   0  0  2  0  0  0  0  0  0  0  0  0
   22.1880   28.8379   37.4548 C   0  0  2  0  0  0  0  0  0  0  0  0
   21.9976   27.9985   38.6485 N   0  0  0  0  0  0  0  0  0  0  0  0
   16.0961   28.3816   36.0894 C   0  0  0  0  0  0  0  0  0  0  0  0
   16.8589   23.1878   33.0962 C   0  0  2  0  0  0  0  0  0  0  0  0
   16.1627   22.6181   34.1913 O   0  0  0  0  0  0  0  0  0  0  0  0
   22.0540   30.3441   37.8323 C   0  0  1  0  0  0  0  0  0  0  0  0
   23.0033   30.6905   38.8576 O   0  0  0  0  0  0  0  0  0  0  0  0
   17.4170   28.6775   36.8830 C   0  0  2  0  0  0  0  0  0  0  0  0
   17.4662   30.1055   37.3081 N   0  0  0  0  0  0  0  0  0  0  0  0
   18.3877   22.8135   33.1667 C   0  0  1  0  0  0  0  0  0  0  0  0
   18.5707   21.3482   33.1784 N   0  0  0  0  0  0  0  0  0  0  0  0
   22.2629   31.1880   36.5532 C   0  0  2  0  0  0  0  0  0  0  0  0
   22.1558   32.5770   36.8806 O   0  0  0  0  0  0  0  0  0  0  0  0
   18.6703   28.3702   36.0088 C   0  0  2  0  0  0  0  0  0  0  0  0
   19.1225   23.4435   31.9414 C   0  0  1  0  0  0  0  0  0  0  0  0
   18.5707   22.8885   30.7519 O   0  0  0  0  0  0  0  0  0  0  0  0
   21.1789   30.7572   35.4736 C   0  0  2  0  0  0  0  0  0  0  0  0
   21.2994   29.3167   35.1568 O   0  0  0  0  0  0  0  0  0  0  0  0
   18.6256   26.8847   35.5585 C   0  0  2  0  0  0  0  0  0  0  0  0
   19.7644   26.6386   34.7360 O   0  0  0  0  0  0  0  0  0  0  0  0
   18.9015   24.9902   31.9606 C   0  0  0  0  0  0  0  0  0  0  0  0
   17.4581   25.3287   31.9709 O   0  0  0  0  0  0  0  0  0  0  0  0
   21.3105   31.5512   34.1422 C   0  0  2  0  0  0  0  0  0  0  0  0
   21.1887   32.9517   34.4141 O   0  0  0  0  0  0  0  0  0  0  0  0
   17.3592   26.5735   34.7232 C   0  0  1  0  0  0  0  0  0  0  0  0
   17.3923   25.1627   34.3721 O   0  0  0  0  0  0  0  0  0  0  0  0
   20.2356   31.1773   33.1454 C   0  0  0  0  0  0  0  0  0  0  0  0
   20.6216   23.1409   31.9484 C   0  0  0  0  0  0  0  0  0  0  0  0
   19.0374   20.9694   34.5347 C   0  0  0  0  0  0  0  0  0  0  0  0
  1  2  1  1  0  0  0
  1  6  1  0  0  0  0
  1 23  1  0  0  0  0
  3  4  1  6  0  0  0
  3  8  1  0  0  0  0
  3 30  1  0  0  0  0
  5  9  1  0  0  0  0
  5 27  1  0  0  0  0
  5 31  1  1  0  0  0
  6  7  1  1  0  0  0
  6 11  1  0  0  0  0
  8 13  1  0  0  0  0
  9 10  1  1  0  0  0
  9 15  1  0  0  0  0
 11 12  1  1  0  0  0
 11 17  1  0  0  0  0
 13 14  1  6  0  0  0
 13 19  1  0  0  0  0
 15 16  1  6  0  0  0
 15 20  1  0  0  0  0
 16 34  1  0  0  0  0
 17 18  1  1  0  0  0
 17 22  1  0  0  0  0
 19  2  1  1  0  0  0
 19 24  1  0  0  0  0
 20 21  1  6  0  0  0
 20 26  1  0  0  0  0
 20 33  1  0  0  0  0
 22 23  1  6  0  0  0
 22 28  1  0  0  0  0
 24 25  1  6  0  0  0
 24 30  1  0  0  0  0
 26 27  1  0  0  0  0
 28 29  1  1  0  0  0
 28 32  1  0  0  0  0
 30 31  1  1  0  0  0
M  END
>  <CHROM.1>
179.77621170,-179.70708280,-109.66871562,-57.89432299,93.50668211,-176.02589022
19.25858977,27.18838850,34.92117539,-1.16611907,-0.16499059,-2.63383857

>  <Name>
ligand

>  <RI>
0

>  <Rbt.Current_Directory>
/home/itssahil/PROJECTS/Mol_Feturizer/New_Systems/rnas/4p3s

>  <Rbt.Executable>
rbdock ($Id: //depot/dev/client3/rdock/2013.1/src/exe/rbdock.cxx#4 $)

>  <Rbt.Library>
libRbt.so (2013.1, Build901 2013/11/27)

>  <Rbt.Parameter_File>
/export/apps/rDock/src/rDock_2013.1_src/data/scripts/dock_solv.prm

>  <Rbt.Receptor>
prm/pocket_docking_4.prm

>  <SCORE>
-14.5754

>  <SCORE.INTER>
-8.85588

>  <SCORE.INTER.CONST>
1

>  <SCORE.INTER.POLAR>
0

>  <SCORE.INTER.ROT>
6

>  <SCORE.INTER.SOLV>
14.9739

>  <SCORE.INTER.VDW>
-18.4952

>  <SCORE.INTER.norm>
-0.260467

>  <SCORE.INTRA>
-5.71951

>  <SCORE.INTRA.DIHEDRAL>
-10.3132

>  <SCORE.INTRA.DIHEDRAL.0>
15.8194

>  <SCORE.INTRA.POLAR>
0

>  <SCORE.INTRA.POLAR.0>
0

>  <SCORE.INTRA.REPUL>
0

>  <SCORE.INTRA.REPUL.0>
0

>  <SCORE.INTRA.SOLV>
-1.26165

>  <SCORE.INTRA.SOLV.lig_0>
-71.9159

>  <SCORE.INTRA.VDW>
0.0679286

>  <SCORE.INTRA.VDW.0>
-3.53918

>  <SCORE.INTRA.norm>
-0.168221

>  <SCORE.RESTR>
0

>  <SCORE.RESTR.CAVITY>
0

>  <SCORE.RESTR.norm>
0

>  <SCORE.SYSTEM>
0

>  <SCORE.SYSTEM.CONST>
0

>  <SCORE.SYSTEM.DIHEDRAL>
0

>  <SCORE.SYSTEM.SOLV>
0

>  <SCORE.SYSTEM.norm>
0

>  <SCORE.heavy>
34

>  <SCORE.norm>
-0.428688

>  <RMSD>
9.012

$$$$
ligand
 OpenBabel01301917533D
libRbt.so/2013.1/901 2013/11/27
 34 36  0  0  0  0  0  0  0  0999 V2000
   22.3899   27.5577   37.4124 C   0  0  2  0  0  0  0  0  0  0  0  0
   21.1442   27.7888   38.0781 O   0  0  0  0  0  0  0  0  0  0  0  0
   17.0560   27.8325   36.7794 C   0  0  2  0  0  0  0  0  0  0  0  0
   15.8054   28.2179   36.1115 N   0  0  0  0  0  0  0  0  0  0  0  0
   17.5579   26.2867   33.5213 C   0  0  2  0  0  0  0  0  0  0  0  0
   23.4316   27.0622   38.4848 C   0  0  2  0  0  0  0  0  0  0  0  0
   22.9650   25.8294   39.1394 N   0  0  0  0  0  0  0  0  0  0  0  0
   17.5782   29.0825   37.5757 C   0  0  0  0  0  0  0  0  0  0  0  0
   16.6437   25.0667   33.1078 C   0  0  2  0  0  0  0  0  0  0  0  0
   15.3455   25.2162   33.6564 O   0  0  0  0  0  0  0  0  0  0  0  0
   23.6781   28.1735   39.5494 C   0  0  1  0  0  0  0  0  0  0  0  0
   24.6297   27.7246   40.5319 O   0  0  0  0  0  0  0  0  0  0  0  0
   18.9035   28.6642   38.3042 C   0  0  2  0  0  0  0  0  0  0  0  0
   19.4615   29.8091   39.0789 N   0  0  0  0  0  0  0  0  0  0  0  0
   17.3147   23.7462   33.6448 C   0  0  1  0  0  0  0  0  0  0  0  0
   16.4874   22.5664   33.3214 N   0  0  0  0  0  0  0  0  0  0  0  0
   24.1682   29.4467   38.8209 C   0  0  2  0  0  0  0  0  0  0  0  0
   24.4125   30.4774   39.7832 O   0  0  0  0  0  0  0  0  0  0  0  0
   19.9731   28.1834   37.2775 C   0  0  2  0  0  0  0  0  0  0  0  0
   18.7353   23.6041   33.0123 C   0  0  1  0  0  0  0  0  0  0  0  0
   18.5904   23.5010   31.5995 O   0  0  0  0  0  0  0  0  0  0  0  0
   23.0675   29.8856   37.7617 C   0  0  2  0  0  0  0  0  0  0  0  0
   22.8221   28.8032   36.7828 O   0  0  0  0  0  0  0  0  0  0  0  0
   19.3988   26.9923   36.4634 C   0  0  2  0  0  0  0  0  0  0  0  0
   20.3832   26.5928   35.5120 O   0  0  0  0  0  0  0  0  0  0  0  0
   19.5767   24.8708   33.3709 C   0  0  0  0  0  0  0  0  0  0  0  0
   18.8982   26.1123   32.9279 O   0  0  0  0  0  0  0  0  0  0  0  0
   23.4728   31.1620   36.9700 C   0  0  2  0  0  0  0  0  0  0  0  0
   23.7347   32.2257   37.8920 O   0  0  0  0  0  0  0  0  0  0  0  0
   18.1193   27.3889   35.6863 C   0  0  1  0  0  0  0  0  0  0  0  0
   17.6431   26.2101   34.9804 O   0  0  0  0  0  0  0  0  0  0  0  0
   22.3805   31.6220   36.0298 C   0  0  0  0  0  0  0  0  0  0  0  0
   19.4630   22.3511   33.5016 C   0  0  0  0  0  0  0  0  0  0  0  0
   15.4894   22.4122   34.4082 C   0  0  0  0  0  0  0  0  0  0  0  0
  1  2  1  1  0  0  0
  1  6  1  0  0  0  0
  1 23  1  0  0  0  0
  3  4  1  6  0  0  0
  3  8  1  0  0  0  0
  3 30  1  0  0  0  0
  5  9  1  0  0  0  0
  5 27  1  0  0  0  0
  5 31  1  1  0  0  0
  6  7  1  1  0  0  0
  6 11  1  0  0  0  0
  8 13  1  0  0  0  0
  9 10  1  1  0  0  0
  9 15  1  0  0  0  0
 11 12  1  1  0  0  0
 11 17  1  0  0  0  0
 13 14  1  6  0  0  0
 13 19  1  0  0  0  0
 15 16  1  6  0  0  0
 15 20  1  0  0  0  0
 16 34  1  0  0  0  0
 17 18  1  1  0  0  0
 17 22  1  0  0  0  0
 19  2  1  1  0  0  0
 19 24  1  0  0  0  0
 20 21  1  6  0  0  0
 20 26  1  0  0  0  0
 20 33  1  0  0  0  0
 22 23  1  6  0  0  0
 22 28  1  0  0  0  0
 24 25  1  6  0  0  0
 24 30  1  0  0  0  0
 26 27  1  0  0  0  0
 28 29  1  1  0  0  0
 28 32  1  0  0  0  0
 30 31  1  1  0  0  0
M  END
>  <CHROM.1>
-176.32701802,-167.44346624,-86.36917959,-56.75541240,124.73591255,-164.09579870
20.04109464,27.13346631,36.19591517,-0.83733362,0.31303623,-2.65436903

>  <Name>
ligand

>  <RI>
0

>  <Rbt.Current_Directory>
/home/itssahil/PROJECTS/Mol_Feturizer/New_Systems/rnas/4p3s

>  <Rbt.Executable>
rbdock ($Id: //depot/dev/client3/rdock/2013.1/src/exe/rbdock.cxx#4 $)

>  <Rbt.Library>
libRbt.so (2013.1, Build901 2013/11/27)

>  <Rbt.Parameter_File>
/export/apps/rDock/src/rDock_2013.1_src/data/scripts/dock_solv.prm

>  <Rbt.Receptor>
prm/pocket_docking_3.prm

>  <SCORE>
-10.6449

>  <SCORE.INTER>
-7.77302

>  <SCORE.INTER.CONST>
1

>  <SCORE.INTER.POLAR>
0

>  <SCORE.INTER.ROT>
6

>  <SCORE.INTER.SOLV>
14.2308

>  <SCORE.INTER.VDW>
-17.5256

>  <SCORE.INTER.norm>
-0.228618

>  <SCORE.INTRA>
-2.87241

>  <SCORE.INTRA.DIHEDRAL>
-6.23055

>  <SCORE.INTRA.DIHEDRAL.0>
15.8194

>  <SCORE.INTRA.POLAR>
0

>  <SCORE.INTRA.POLAR.0>
0

>  <SCORE.INTRA.REPUL>
0

>  <SCORE.INTRA.REPUL.0>
0

>  <SCORE.INTRA.SOLV>
-0.804497

>  <SCORE.INTRA.SOLV.lig_0>
-71.9159

>  <SCORE.INTRA.VDW>
0.645112

>  <SCORE.INTRA.VDW.0>
-3.53918

>  <SCORE.INTRA.norm>
-0.0844826

>  <SCORE.RESTR>
0.000515711

>  <SCORE.RESTR.CAVITY>
0.000515711

>  <SCORE.RESTR.norm>
1.5168e-05

>  <SCORE.SYSTEM>
0

>  <SCORE.SYSTEM.CONST>
0

>  <SCORE.SYSTEM.DIHEDRAL>
0

>  <SCORE.SYSTEM.SOLV>
0

>  <SCORE.SYSTEM.norm>
0

>  <SCORE.heavy>
34

>  <SCORE.norm>
-0.313086

>  <RMSD>
9.022

$$$$
ligand
 OpenBabel01301917533D
libRbt.so/2013.1/901 2013/11/27
 34 36  0  0  0  0  0  0  0  0999 V2000
   18.3600   27.7823   37.8459 C   0  0  2  0  0  0  0  0  0  0  0  0
   17.8355   28.4855   36.7152 O   0  0  0  0  0  0  0  0  0  0  0  0
   15.5919   25.2474   35.0172 C   0  0  2  0  0  0  0  0  0  0  0  0
   14.7572   24.4506   34.1078 N   0  0  0  0  0  0  0  0  0  0  0  0
   17.2423   23.4974   32.9453 C   0  0  2  0  0  0  0  0  0  0  0  0
   18.1569   28.6860   39.1198 C   0  0  2  0  0  0  0  0  0  0  0  0
   16.7320   28.9926   39.3240 N   0  0  0  0  0  0  0  0  0  0  0  0
   14.8194   26.5788   35.3329 C   0  0  0  0  0  0  0  0  0  0  0  0
   17.8098   22.0573   33.2608 C   0  0  2  0  0  0  0  0  0  0  0  0
   17.2566   21.5639   34.4687 O   0  0  0  0  0  0  0  0  0  0  0  0
   18.9737   30.0059   38.9792 C   0  0  1  0  0  0  0  0  0  0  0  0
   18.7907   30.8352   40.1416 O   0  0  0  0  0  0  0  0  0  0  0  0
   15.7031   27.4204   36.3194 C   0  0  2  0  0  0  0  0  0  0  0  0
   15.0314   28.7071   36.6596 N   0  0  0  0  0  0  0  0  0  0  0  0
   19.3772   22.1628   33.3810 C   0  0  1  0  0  0  0  0  0  0  0  0
   19.9690   20.8510   33.7125 N   0  0  0  0  0  0  0  0  0  0  0  0
   20.4614   29.6387   38.7693 C   0  0  2  0  0  0  0  0  0  0  0  0
   21.2321   30.8386   38.6499 O   0  0  0  0  0  0  0  0  0  0  0  0
   17.0948   27.7312   35.6902 C   0  0  2  0  0  0  0  0  0  0  0  0
   19.9561   22.6953   32.0321 C   0  0  1  0  0  0  0  0  0  0  0  0
   19.6386   21.7605   31.0061 O   0  0  0  0  0  0  0  0  0  0  0  0
   20.5861   28.7327   37.4694 C   0  0  2  0  0  0  0  0  0  0  0  0
   19.7744   27.5031   37.6085 O   0  0  0  0  0  0  0  0  0  0  0  0
   17.8006   26.3958   35.3295 C   0  0  2  0  0  0  0  0  0  0  0  0
   19.0553   26.7084   34.7281 O   0  0  0  0  0  0  0  0  0  0  0  0
   19.3033   24.0788   31.7136 C   0  0  0  0  0  0  0  0  0  0  0  0
   17.8243   23.9820   31.6784 O   0  0  0  0  0  0  0  0  0  0  0  0
   22.0527   28.3054   37.1749 C   0  0  2  0  0  0  0  0  0  0  0  0
   22.6462   27.7980   38.3751 O   0  0  0  0  0  0  0  0  0  0  0  0
   16.9789   25.5661   34.3122 C   0  0  1  0  0  0  0  0  0  0  0  0
   17.7018   24.3302   34.0577 O   0  0  0  0  0  0  0  0  0  0  0  0
   22.8991   29.4629   36.6927 C   0  0  0  0  0  0  0  0  0  0  0  0
   21.4774   22.8454   32.0753 C   0  0  0  0  0  0  0  0  0  0  0  0
   20.2105   20.8295   35.1761 C   0  0  0  0  0  0  0  0  0  0  0  0
  1  2  1  6  0  0  0
  1  6  1  0  0  0  0
  1 23  1  0  0  0  0
  3  4  1  6  0  0  0
  3  8  1  0  0  0  0
  3 30  1  0  0  0  0
  5  9  1  0  0  0  0
  5 27  1  0  0  0  0
  5 31  1  1  0  0  0
  6  7  1  6  0  0  0
  6 11  1  0  0  0  0
  8 13  1  0  0  0  0
  9 10  1  1  0  0  0
  9 15  1  0  0  0  0
 11 12  1  1  0  0  0
 11 17  1  0  0  0  0
 13 14  1  6  0  0  0
 13 19  1  0  0  0  0
 15 16  1  6  0  0  0
 15 20  1  0  0  0  0
 16 34  1  0  0  0  0
 17 18  1  6  0  0  0
 17 22  1  0  0  0  0
 19  2  1  1  0  0  0
 19 24  1  0  0  0  0
 20 21  1  6  0  0  0
 20 26  1  0  0  0  0
 20 33  1  0  0  0  0
 22 23  1  1  0  0  0
 22 28  1  0  0  0  0
 24 25  1  6  0  0  0
 24 30  1  0  0  0  0
 26 27  1  0  0  0  0
 28 29  1  1  0  0  0
 28 32  1  0  0  0  0
 30 31  1  1  0  0  0
M  END
>  <CHROM.1>
-140.49513454,74.86960386,-98.35467476,48.44473643,75.55101868,-158.97661238
18.66557780,26.07327217,35.58427425,1.47943328,-0.04773200,0.67300130

>  <Name>
ligand

>  <RI>
0

>  <Rbt.Current_Directory>
/home/itssahil/PROJECTS/Mol_Feturizer/New_Systems/rnas/4p3s

>  <Rbt.Executable>
rbdock ($Id: //depot/dev/client3/rdock/2013.1/src/exe/rbdock.cxx#4 $)

>  <Rbt.Library>
libRbt.so (2013.1, Build901 2013/11/27)

>  <Rbt.Parameter_File>
/export/apps/rDock/src/rDock_2013.1_src/data/scripts/dock_solv.prm

>  <Rbt.Receptor>
prm/pocket_docking_6.prm

>  <SCORE>
-13.3096

>  <SCORE.INTER>
-12.8215

>  <SCORE.INTER.CONST>
1

>  <SCORE.INTER.POLAR>
0

>  <SCORE.INTER.ROT>
6

>  <SCORE.INTER.SOLV>
14.3792

>  <SCORE.INTER.VDW>
-20.9408

>  <SCORE.INTER.norm>
-0.377104

>  <SCORE.INTRA>
-0.488029

>  <SCORE.INTRA.DIHEDRAL>
-4.97731

>  <SCORE.INTRA.DIHEDRAL.0>
15.8194

>  <SCORE.INTRA.POLAR>
0

>  <SCORE.INTRA.POLAR.0>
0

>  <SCORE.INTRA.REPUL>
0

>  <SCORE.INTRA.REPUL.0>
0

>  <SCORE.INTRA.SOLV>
2.43927

>  <SCORE.INTRA.SOLV.lig_0>
-71.9159

>  <SCORE.INTRA.VDW>
0.780995

>  <SCORE.INTRA.VDW.0>
-3.53918

>  <SCORE.INTRA.norm>
-0.0143538

>  <SCORE.RESTR>
0

>  <SCORE.RESTR.CAVITY>
0

>  <SCORE.RESTR.norm>
0

>  <SCORE.SYSTEM>
0

>  <SCORE.SYSTEM.CONST>
0

>  <SCORE.SYSTEM.DIHEDRAL>
0

>  <SCORE.SYSTEM.SOLV>
0

>  <SCORE.SYSTEM.norm>
0

>  <SCORE.heavy>
34

>  <SCORE.norm>
-0.391458

>  <RMSD>
9.028

$$$$
ligand
 OpenBabel01301917533D
libRbt.so/2013.1/901 2013/11/27
 34 36  0  0  0  0  0  0  0  0999 V2000
   18.1297   36.7200   32.2876 C   0  0  2  0  0  0  0  0  0  0  0  0
   18.8394   35.5116   31.9975 O   0  0  0  0  0  0  0  0  0  0  0  0
   22.7153   33.7664   32.5749 C   0  0  2  0  0  0  0  0  0  0  0  0
   24.1694   33.6036   32.7089 N   0  0  0  0  0  0  0  0  0  0  0  0
   23.6954   34.1640   35.6932 C   0  0  2  0  0  0  0  0  0  0  0  0
   16.8257   36.7440   31.4045 C   0  0  2  0  0  0  0  0  0  0  0  0
   15.9793   35.5735   31.6864 N   0  0  0  0  0  0  0  0  0  0  0  0
   22.4382   34.4815   31.2034 C   0  0  0  0  0  0  0  0  0  0  0  0
   23.8951   32.8820   36.5943 C   0  0  2  0  0  0  0  0  0  0  0  0
   23.9599   31.7186   35.7876 O   0  0  0  0  0  0  0  0  0  0  0  0
   17.2004   36.7821   29.8922 C   0  0  1  0  0  0  0  0  0  0  0  0
   16.0112   36.8040   29.0812 O   0  0  0  0  0  0  0  0  0  0  0  0
   20.8841   34.6374   31.0524 C   0  0  2  0  0  0  0  0  0  0  0  0
   20.5461   35.3172   29.7694 N   0  0  0  0  0  0  0  0  0  0  0  0
   22.6787   32.7883   37.5912 C   0  0  1  0  0  0  0  0  0  0  0  0
   22.7866   31.5857   38.4415 N   0  0  0  0  0  0  0  0  0  0  0  0
   18.0852   38.0253   29.6401 C   0  0  2  0  0  0  0  0  0  0  0  0
   18.4310   38.0860   28.2528 O   0  0  0  0  0  0  0  0  0  0  0  0
   20.2925   35.4671   32.2317 C   0  0  2  0  0  0  0  0  0  0  0  0
   22.6434   34.0765   38.4730 C   0  0  1  0  0  0  0  0  0  0  0  0
   23.8490   34.1379   39.2280 O   0  0  0  0  0  0  0  0  0  0  0  0
   19.3775   37.9283   30.5604 C   0  0  2  0  0  0  0  0  0  0  0  0
   18.9985   37.8561   31.9891 O   0  0  0  0  0  0  0  0  0  0  0  0
   20.6427   34.7675   33.5731 C   0  0  2  0  0  0  0  0  0  0  0  0
   20.1182   35.5618   34.6351 O   0  0  0  0  0  0  0  0  0  0  0  0
   22.5347   35.3247   37.5394 C   0  0  0  0  0  0  0  0  0  0  0  0
   23.6434   35.3607   36.5558 O   0  0  0  0  0  0  0  0  0  0  0  0
   20.3335   39.1425   30.3812 C   0  0  2  0  0  0  0  0  0  0  0  0
   21.5872   38.8525   31.0090 O   0  0  0  0  0  0  0  0  0  0  0  0
   22.1731   34.6488   33.7788 C   0  0  1  0  0  0  0  0  0  0  0  0
   22.4014   33.9617   35.0399 O   0  0  0  0  0  0  0  0  0  0  0  0
   19.7807   40.4026   31.0099 C   0  0  0  0  0  0  0  0  0  0  0  0
   21.4733   34.0708   39.4578 C   0  0  0  0  0  0  0  0  0  0  0  0
   22.0083   30.5064   37.7856 C   0  0  0  0  0  0  0  0  0  0  0  0
  1  2  1  6  0  0  0
  1  6  1  0  0  0  0
  1 23  1  0  0  0  0
  3  4  1  1  0  0  0
  3  8  1  0  0  0  0
  3 30  1  0  0  0  0
  5  9  1  0  0  0  0
  5 27  1  0  0  0  0
  5 31  1  1  0  0  0
  6  7  1  6  0  0  0
  6 11  1  0  0  0  0
  8 13  1  0  0  0  0
  9 10  1  6  0  0  0
  9 15  1  0  0  0  0
 11 12  1  6  0  0  0
 11 17  1  0  0  0  0
 13 14  1  6  0  0  0
 13 19  1  0  0  0  0
 15 16  1  1  0  0  0
 15 20  1  0  0  0  0
 16 34  1  0  0  0  0
 17 18  1  6  0  0  0
 17 22  1  0  0  0  0
 19  2  1  6  0  0  0
 19 24  1  0  0  0  0
 20 21  1  1  0  0  0
 20 26  1  0  0  0  0
 20 33  1  0  0  0  0
 22 23  1  1  0  0  0
 22 28  1  0  0  0  0
 24 25  1  1  0  0  0
 24 30  1  0  0  0  0
 26 27  1  0  0  0  0
 28 29  1  1  0  0  0
 28 32  1  0  0  0  0
 30 31  1  1  0  0  0
M  END
>  <CHROM.1>
155.39358346,-141.58102014,-93.98105601,-167.68193545,86.98372453,-155.46179335
20.85827749,35.34497072,33.51145990,2.07953110,0.14861415,-1.10852469

>  <Name>
ligand

>  <RI>
0

>  <Rbt.Current_Directory>
/home/itssahil/PROJECTS/Mol_Feturizer/New_Systems/rnas/4p3s

>  <Rbt.Executable>
rbdock ($Id: //depot/dev/client3/rdock/2013.1/src/exe/rbdock.cxx#4 $)

>  <Rbt.Library>
libRbt.so (2013.1, Build901 2013/11/27)

>  <Rbt.Parameter_File>
/export/apps/rDock/src/rDock_2013.1_src/data/scripts/dock_solv.prm

>  <Rbt.Receptor>
prm/blind_docking_60.prm

>  <SCORE>
12.7474

>  <SCORE.INTER>
2.59486

>  <SCORE.INTER.CONST>
1

>  <SCORE.INTER.POLAR>
0

>  <SCORE.INTER.ROT>
6

>  <SCORE.INTER.SOLV>
18.2952

>  <SCORE.INTER.VDW>
-11.9685

>  <SCORE.INTER.norm>
0.0763193

>  <SCORE.INTRA>
1.17468

>  <SCORE.INTRA.DIHEDRAL>
-1.15315

>  <SCORE.INTRA.DIHEDRAL.0>
15.8194

>  <SCORE.INTRA.POLAR>
0

>  <SCORE.INTRA.POLAR.0>
0

>  <SCORE.INTRA.REPUL>
0

>  <SCORE.INTRA.REPUL.0>
0

>  <SCORE.INTRA.SOLV>
2.7243

>  <SCORE.INTRA.SOLV.lig_0>
-71.9159

>  <SCORE.INTRA.VDW>
0.389098

>  <SCORE.INTRA.VDW.0>
-3.53918

>  <SCORE.INTRA.norm>
0.0345493

>  <SCORE.RESTR>
8.97789

>  <SCORE.RESTR.CAVITY>
8.97789

>  <SCORE.RESTR.norm>
0.264056

>  <SCORE.SYSTEM>
0

>  <SCORE.SYSTEM.CONST>
0

>  <SCORE.SYSTEM.DIHEDRAL>
0

>  <SCORE.SYSTEM.SOLV>
0

>  <SCORE.SYSTEM.norm>
0

>  <SCORE.heavy>
34

>  <SCORE.norm>
0.374924

>  <RMSD>
9.029

$$$$
ligand
 OpenBabel01301917533D
libRbt.so/2013.1/901 2013/11/27
 34 36  0  0  0  0  0  0  0  0999 V2000
   20.3591   28.5142   35.5233 C   0  0  2  0  0  0  0  0  0  0  0  0
   19.0015   28.5157   35.9763 O   0  0  0  0  0  0  0  0  0  0  0  0
   15.9037   25.6718   35.1291 C   0  0  2  0  0  0  0  0  0  0  0  0
   14.8039   24.9588   34.4652 N   0  0  0  0  0  0  0  0  0  0  0  0
   17.1184   23.3551   33.0431 C   0  0  2  0  0  0  0  0  0  0  0  0
   21.1896   29.4627   36.4675 C   0  0  2  0  0  0  0  0  0  0  0  0
   21.1161   29.0074   37.8651 N   0  0  0  0  0  0  0  0  0  0  0  0
   15.4882   27.1820   35.2547 C   0  0  0  0  0  0  0  0  0  0  0  0
   17.6699   21.8948   33.2852 C   0  0  2  0  0  0  0  0  0  0  0  0
   17.1389   21.3608   34.4858 O   0  0  0  0  0  0  0  0  0  0  0  0
   20.6680   30.9269   36.3532 C   0  0  1  0  0  0  0  0  0  0  0  0
   21.4243   31.7974   37.2149 O   0  0  0  0  0  0  0  0  0  0  0  0
   16.6552   27.9388   35.9811 C   0  0  2  0  0  0  0  0  0  0  0  0
   16.3307   29.3861   36.1302 N   0  0  0  0  0  0  0  0  0  0  0  0
   19.2413   21.9712   33.3696 C   0  0  1  0  0  0  0  0  0  0  0  0
   19.8197   20.6380   33.6323 N   0  0  0  0  0  0  0  0  0  0  0  0
   20.7648   31.3650   34.8731 C   0  0  2  0  0  0  0  0  0  0  0  0
   20.3013   32.7132   34.7480 O   0  0  0  0  0  0  0  0  0  0  0  0
   17.9869   27.8021   35.1829 C   0  0  2  0  0  0  0  0  0  0  0  0
   19.7951   22.5496   32.0290 C   0  0  1  0  0  0  0  0  0  0  0  0
   19.4368   21.6627   30.9744 O   0  0  0  0  0  0  0  0  0  0  0  0
   19.9027   30.3664   33.9867 C   0  0  2  0  0  0  0  0  0  0  0  0
   20.3908   28.9775   34.1381 O   0  0  0  0  0  0  0  0  0  0  0  0
   18.3311   26.2966   35.0200 C   0  0  2  0  0  0  0  0  0  0  0  0
   19.5344   26.1988   34.2608 O   0  0  0  0  0  0  0  0  0  0  0  0
   19.1573   23.9548   31.7838 C   0  0  0  0  0  0  0  0  0  0  0  0
   17.6765   23.8823   31.7824 O   0  0  0  0  0  0  0  0  0  0  0  0
   19.9408   30.7232   32.4729 C   0  0  2  0  0  0  0  0  0  0  0  0
   19.1445   29.7810   31.7460 O   0  0  0  0  0  0  0  0  0  0  0  0
   17.2227   25.5314   34.2557 C   0  0  1  0  0  0  0  0  0  0  0  0
   17.6190   24.1345   34.1763 O   0  0  0  0  0  0  0  0  0  0  0  0
   21.3441   30.6759   31.9099 C   0  0  0  0  0  0  0  0  0  0  0  0
   21.3193   22.6744   32.0393 C   0  0  0  0  0  0  0  0  0  0  0  0
   20.3018   20.6313   35.0352 C   0  0  0  0  0  0  0  0  0  0  0  0
  1  2  1  1  0  0  0
  1  6  1  0  0  0  0
  1 23  1  0  0  0  0
  3  4  1  6  0  0  0
  3  8  1  0  0  0  0
  3 30  1  0  0  0  0
  5  9  1  0  0  0  0
  5 27  1  0  0  0  0
  5 31  1  1  0  0  0
  6  7  1  1  0  0  0
  6 11  1  0  0  0  0
  8 13  1  0  0  0  0
  9 10  1  1  0  0  0
  9 15  1  0  0  0  0
 11 12  1  1  0  0  0
 11 17  1  0  0  0  0
 13 14  1  6  0  0  0
 13 19  1  0  0  0  0
 15 16  1  6  0  0  0
 15 20  1  0  0  0  0
 16 34  1  0  0  0  0
 17 18  1  1  0  0  0
 17 22  1  0  0  0  0
 19  2  1  1  0  0  0
 19 24  1  0  0  0  0
 20 21  1  6  0  0  0
 20 26  1  0  0  0  0
 20 33  1  0  0  0  0
 22 23  1  6  0  0  0
 22 28  1  0  0  0  0
 24 25  1  6  0  0  0
 24 30  1  0  0  0  0
 26 27  1  0  0  0  0
 28 29  1  6  0  0  0
 28 32  1  0  0  0  0
 30 31  1  1  0  0  0
M  END
>  <CHROM.1>
174.31089690,177.19388498,-107.48299510,179.96916558,92.17124738,-177.63839492
18.96726322,26.54249975,34.23026746,-1.36066430,-0.50659643,-2.80344972

>  <Name>
ligand

>  <RI>
0

>  <Rbt.Current_Directory>
/home/itssahil/PROJECTS/Mol_Feturizer/New_Systems/rnas/4p3s

>  <Rbt.Executable>
rbdock ($Id: //depot/dev/client3/rdock/2013.1/src/exe/rbdock.cxx#4 $)

>  <Rbt.Library>
libRbt.so (2013.1, Build901 2013/11/27)

>  <Rbt.Parameter_File>
/export/apps/rDock/src/rDock_2013.1_src/data/scripts/dock_solv.prm

>  <Rbt.Receptor>
prm/pocket_docking_5.prm

>  <SCORE>
-17.9112

>  <SCORE.INTER>
-12.6334

>  <SCORE.INTER.CONST>
1

>  <SCORE.INTER.POLAR>
0

>  <SCORE.INTER.ROT>
6

>  <SCORE.INTER.SOLV>
15.1661

>  <SCORE.INTER.VDW>
-21.0777

>  <SCORE.INTER.norm>
-0.371571

>  <SCORE.INTRA>
-5.27779

>  <SCORE.INTRA.DIHEDRAL>
-10.4693

>  <SCORE.INTRA.DIHEDRAL.0>
15.8194

>  <SCORE.INTRA.POLAR>
0

>  <SCORE.INTRA.POLAR.0>
0

>  <SCORE.INTRA.REPUL>
0

>  <SCORE.INTRA.REPUL.0>
0

>  <SCORE.INTRA.SOLV>
-1.43197

>  <SCORE.INTRA.SOLV.lig_0>
-71.9159

>  <SCORE.INTRA.VDW>
0.672855

>  <SCORE.INTRA.VDW.0>
-3.53918

>  <SCORE.INTRA.norm>
-0.155229

>  <SCORE.RESTR>
0

>  <SCORE.RESTR.CAVITY>
0

>  <SCORE.RESTR.norm>
0

>  <SCORE.SYSTEM>
0

>  <SCORE.SYSTEM.CONST>
0

>  <SCORE.SYSTEM.DIHEDRAL>
0

>  <SCORE.SYSTEM.SOLV>
0

>  <SCORE.SYSTEM.norm>
0

>  <SCORE.heavy>
34

>  <SCORE.norm>
-0.5268

>  <RMSD>
9.029

$$$$
ligand
 OpenBabel01301917533D
libRbt.so/2013.1/901 2013/11/27
 34 36  0  0  0  0  0  0  0  0999 V2000
   17.6883   28.4713   37.9282 C   0  0  2  0  0  0  0  0  0  0  0  0
   17.6638   28.8607   36.5512 O   0  0  0  0  0  0  0  0  0  0  0  0
   15.9304   25.2390   35.0410 C   0  0  2  0  0  0  0  0  0  0  0  0
   15.2575   24.2707   34.1645 N   0  0  0  0  0  0  0  0  0  0  0  0
   19.3455   24.6026   33.3998 C   0  0  2  0  0  0  0  0  0  0  0  0
   18.0305   29.7449   38.7894 C   0  0  2  0  0  0  0  0  0  0  0  0
   17.0337   30.8064   38.5756 N   0  0  0  0  0  0  0  0  0  0  0  0
   14.9897   26.4895   35.1839 C   0  0  0  0  0  0  0  0  0  0  0  0
   18.7759   24.2396   31.9718 C   0  0  2  0  0  0  0  0  0  0  0  0
   17.7986   25.1867   31.5764 O   0  0  0  0  0  0  0  0  0  0  0  0
   19.4548   30.2683   38.4338 C   0  0  1  0  0  0  0  0  0  0  0  0
   19.7716   31.4327   39.2187 O   0  0  0  0  0  0  0  0  0  0  0  0
   15.7006   27.5148   36.1356 C   0  0  2  0  0  0  0  0  0  0  0  0
   14.8633   28.7354   36.3130 N   0  0  0  0  0  0  0  0  0  0  0  0
   18.1413   22.7995   32.0480 C   0  0  1  0  0  0  0  0  0  0  0  0
   17.5557   22.4131   30.7485 N   0  0  0  0  0  0  0  0  0  0  0  0
   20.4686   29.1254   38.6744 C   0  0  2  0  0  0  0  0  0  0  0  0
   21.7865   29.5896   38.3650 O   0  0  0  0  0  0  0  0  0  0  0  0
   17.0871   27.9357   35.5613 C   0  0  2  0  0  0  0  0  0  0  0  0
   19.2447   21.7793   32.4721 C   0  0  1  0  0  0  0  0  0  0  0  0
   20.2626   21.7778   31.4765 O   0  0  0  0  0  0  0  0  0  0  0  0
   20.0608   27.8818   37.7726 C   0  0  2  0  0  0  0  0  0  0  0  0
   18.6922   27.4239   38.1005 O   0  0  0  0  0  0  0  0  0  0  0  0
   17.9652   26.6693   35.3701 C   0  0  2  0  0  0  0  0  0  0  0  0
   19.2139   27.0778   34.8153 O   0  0  0  0  0  0  0  0  0  0  0  0
   19.8426   22.2241   33.8454 C   0  0  0  0  0  0  0  0  0  0  0  0
   20.3681   23.6090   33.7817 O   0  0  0  0  0  0  0  0  0  0  0  0
   21.0235   26.6724   37.9486 C   0  0  2  0  0  0  0  0  0  0  0  0
   21.1461   26.3659   39.3419 O   0  0  0  0  0  0  0  0  0  0  0  0
   17.3165   25.6606   34.3903 C   0  0  1  0  0  0  0  0  0  0  0  0
   18.1928   24.5039   34.2963 O   0  0  0  0  0  0  0  0  0  0  0  0
   22.4087   26.9623   37.4141 C   0  0  0  0  0  0  0  0  0  0  0  0
   18.7006   20.3547   32.5884 C   0  0  0  0  0  0  0  0  0  0  0  0
   16.1558   21.9912   30.9997 C   0  0  0  0  0  0  0  0  0  0  0  0
  1  2  1  6  0  0  0
  1  6  1  0  0  0  0
  1 23  1  0  0  0  0
  3  4  1  6  0  0  0
  3  8  1  0  0  0  0
  3 30  1  0  0  0  0
  5  9  1  0  0  0  0
  5 27  1  0  0  0  0
  5 31  1  1  0  0  0
  6  7  1  6  0  0  0
  6 11  1  0  0  0  0
  8 13  1  0  0  0  0
  9 10  1  1  0  0  0
  9 15  1  0  0  0  0
 11 12  1  1  0  0  0
 11 17  1  0  0  0  0
 13 14  1  6  0  0  0
 13 19  1  0  0  0  0
 15 16  1  6  0  0  0
 15 20  1  0  0  0  0
 16 34  1  0  0  0  0
 17 18  1  6  0  0  0
 17 22  1  0  0  0  0
 19  2  1  1  0  0  0
 19 24  1  0  0  0  0
 20 21  1  6  0  0  0
 20 26  1  0  0  0  0
 20 33  1  0  0  0  0
 22 23  1  1  0  0  0
 22 28  1  0  0  0  0
 24 25  1  6  0  0  0
 24 30  1  0  0  0  0
 26 27  1  0  0  0  0
 28 29  1  1  0  0  0
 28 32  1  0  0  0  0
 30 31  1  1  0  0  0
M  END
>  <CHROM.1>
-166.91872253,49.89262717,-127.40317764,52.24403678,163.26977040,-83.77160042
18.51470547,26.13220410,35.39052716,1.45974151,-0.30239602,0.71004479

>  <Name>
ligand

>  <RI>
0

>  <Rbt.Current_Directory>
/home/itssahil/PROJECTS/Mol_Feturizer/New_Systems/rnas/4p3s

>  <Rbt.Executable>
rbdock ($Id: //depot/dev/client3/rdock/2013.1/src/exe/rbdock.cxx#4 $)

>  <Rbt.Library>
libRbt.so (2013.1, Build901 2013/11/27)

>  <Rbt.Parameter_File>
/export/apps/rDock/src/rDock_2013.1_src/data/scripts/dock_solv.prm

>  <Rbt.Receptor>
prm/pocket_docking_6.prm

>  <SCORE>
-12.7032

>  <SCORE.INTER>
-10.1397

>  <SCORE.INTER.CONST>
1

>  <SCORE.INTER.POLAR>
0

>  <SCORE.INTER.ROT>
6

>  <SCORE.INTER.SOLV>
15.052

>  <SCORE.INTER.VDW>
-19.3772

>  <SCORE.INTER.norm>
-0.298228

>  <SCORE.INTRA>
-2.56349

>  <SCORE.INTRA.DIHEDRAL>
-9.33742

>  <SCORE.INTRA.DIHEDRAL.0>
15.8194

>  <SCORE.INTRA.POLAR>
0

>  <SCORE.INTRA.POLAR.0>
0

>  <SCORE.INTRA.REPUL>
0

>  <SCORE.INTRA.REPUL.0>
0

>  <SCORE.INTRA.SOLV>
1.74864

>  <SCORE.INTRA.SOLV.lig_0>
-71.9159

>  <SCORE.INTRA.VDW>
1.2309

>  <SCORE.INTRA.VDW.0>
-3.53918

>  <SCORE.INTRA.norm>
-0.0753969

>  <SCORE.RESTR>
0

>  <SCORE.RESTR.CAVITY>
0

>  <SCORE.RESTR.norm>
0

>  <SCORE.SYSTEM>
0

>  <SCORE.SYSTEM.CONST>
0

>  <SCORE.SYSTEM.DIHEDRAL>
0

>  <SCORE.SYSTEM.SOLV>
0

>  <SCORE.SYSTEM.norm>
0

>  <SCORE.heavy>
34

>  <SCORE.norm>
-0.373625

>  <RMSD>
9.042

$$$$
ligand
 OpenBabel01301917533D
libRbt.so/2013.1/901 2013/11/27
 34 36  0  0  0  0  0  0  0  0999 V2000
   21.4723   27.7802   37.0802 C   0  0  2  0  0  0  0  0  0  0  0  0
   20.1518   28.0167   37.5787 O   0  0  0  0  0  0  0  0  0  0  0  0
   16.3112   26.9074   36.0226 C   0  0  2  0  0  0  0  0  0  0  0  0
   15.0897   26.8745   35.2067 N   0  0  0  0  0  0  0  0  0  0  0  0
   16.7715   24.9641   33.3341 C   0  0  2  0  0  0  0  0  0  0  0  0
   22.4447   27.6580   38.3131 C   0  0  2  0  0  0  0  0  0  0  0  0
   22.0296   26.5612   39.2023 N   0  0  0  0  0  0  0  0  0  0  0  0
   16.4738   28.3667   36.5822 C   0  0  0  0  0  0  0  0  0  0  0  0
   16.7945   23.4020   33.1004 C   0  0  2  0  0  0  0  0  0  0  0  0
   16.0306   22.7440   34.0964 O   0  0  0  0  0  0  0  0  0  0  0  0
   22.4846   29.0013   39.1024 C   0  0  1  0  0  0  0  0  0  0  0  0
   23.3723   28.8940   40.2305 O   0  0  0  0  0  0  0  0  0  0  0  0
   17.7680   28.3959   37.4690 C   0  0  2  0  0  0  0  0  0  0  0  0
   17.9894   29.7587   38.0312 N   0  0  0  0  0  0  0  0  0  0  0  0
   18.2934   22.9196   33.1543 C   0  0  1  0  0  0  0  0  0  0  0  0
   18.3819   21.4560   32.9783 N   0  0  0  0  0  0  0  0  0  0  0  0
   22.9266   30.1232   38.1338 C   0  0  2  0  0  0  0  0  0  0  0  0
   22.9816   31.3651   38.8426 O   0  0  0  0  0  0  0  0  0  0  0  0
   19.0204   27.9861   36.6367 C   0  0  2  0  0  0  0  0  0  0  0  0
   19.1037   23.6516   32.0380 C   0  0  1  0  0  0  0  0  0  0  0  0
   18.5536   23.2932   30.7746 O   0  0  0  0  0  0  0  0  0  0  0  0
   21.8995   30.1870   36.9225 C   0  0  2  0  0  0  0  0  0  0  0  0
   21.8497   28.8911   36.2095 O   0  0  0  0  0  0  0  0  0  0  0  0
   18.7969   26.5682   36.0443 C   0  0  2  0  0  0  0  0  0  0  0  0
   19.9415   26.2310   35.2632 O   0  0  0  0  0  0  0  0  0  0  0  0
   18.9816   25.1942   32.2545 C   0  0  0  0  0  0  0  0  0  0  0  0
   17.5631   25.6249   32.2780 O   0  0  0  0  0  0  0  0  0  0  0  0
   22.2633   31.2883   35.8856 C   0  0  2  0  0  0  0  0  0  0  0  0
   22.3297   32.5561   36.5476 O   0  0  0  0  0  0  0  0  0  0  0  0
   17.5572   26.5196   35.1174 C   0  0  1  0  0  0  0  0  0  0  0  0
   17.4146   25.1553   34.6348 O   0  0  0  0  0  0  0  0  0  0  0  0
   21.2349   31.3953   34.7812 C   0  0  0  0  0  0  0  0  0  0  0  0
   20.5795   23.2503   32.0377 C   0  0  0  0  0  0  0  0  0  0  0  0
   19.0091   20.8984   34.2016 C   0  0  0  0  0  0  0  0  0  0  0  0
  1  2  1  1  0  0  0
  1  6  1  0  0  0  0
  1 23  1  0  0  0  0
  3  4  1  6  0  0  0
  3  8  1  0  0  0  0
  3 30  1  0  0  0  0
  5  9  1  0  0  0  0
  5 27  1  0  0  0  0
  5 31  1  1  0  0  0
  6  7  1  1  0  0  0
  6 11  1  0  0  0  0
  8 13  1  0  0  0  0
  9 10  1  1  0  0  0
  9 15  1  0  0  0  0
 11 12  1  1  0  0  0
 11 17  1  0  0  0  0
 13 14  1  6  0  0  0
 13 19  1  0  0  0  0
 15 16  1  6  0  0  0
 15 20  1  0  0  0  0
 16 34  1  0  0  0  0
 17 18  1  1  0  0  0
 17 22  1  0  0  0  0
 19  2  1  1  0  0  0
 19 24  1  0  0  0  0
 20 21  1  6  0  0  0
 20 26  1  0  0  0  0
 20 33  1  0  0  0  0
 22 23  1  6  0  0  0
 22 28  1  0  0  0  0
 24 25  1  6  0  0  0
 24 30  1  0  0  0  0
 26 27  1  0  0  0  0
 28 29  1  1  0  0  0
 28 32  1  0  0  0  0
 30 31  1  1  0  0  0
M  END
>  <CHROM.1>
-171.70437838,-175.34998600,-119.48305543,-57.06355992,92.50693556,179.15592870
19.54921790,26.88258843,35.57892959,-1.08902108,0.15870884,-2.58881987

>  <Name>
ligand

>  <RI>
0

>  <Rbt.Current_Directory>
/home/itssahil/PROJECTS/Mol_Feturizer/New_Systems/rnas/4p3s

>  <Rbt.Executable>
rbdock ($Id: //depot/dev/client3/rdock/2013.1/src/exe/rbdock.cxx#4 $)

>  <Rbt.Library>
libRbt.so (2013.1, Build901 2013/11/27)

>  <Rbt.Parameter_File>
/export/apps/rDock/src/rDock_2013.1_src/data/scripts/dock_solv.prm

>  <Rbt.Receptor>
prm/pocket_docking_4.prm

>  <SCORE>
-14.7214

>  <SCORE.INTER>
-9.12781

>  <SCORE.INTER.CONST>
1

>  <SCORE.INTER.POLAR>
0

>  <SCORE.INTER.ROT>
6

>  <SCORE.INTER.SOLV>
15.3411

>  <SCORE.INTER.VDW>
-18.7989

>  <SCORE.INTER.norm>
-0.268465

>  <SCORE.INTRA>
-5.60317

>  <SCORE.INTRA.DIHEDRAL>
-10.0279

>  <SCORE.INTRA.DIHEDRAL.0>
15.8194

>  <SCORE.INTRA.POLAR>
0

>  <SCORE.INTRA.POLAR.0>
0

>  <SCORE.INTRA.REPUL>
0

>  <SCORE.INTRA.REPUL.0>
0

>  <SCORE.INTRA.SOLV>
-1.17781

>  <SCORE.INTRA.SOLV.lig_0>
-71.9159

>  <SCORE.INTRA.VDW>
-0.000290423

>  <SCORE.INTRA.VDW.0>
-3.53918

>  <SCORE.INTRA.norm>
-0.164799

>  <SCORE.RESTR>
0.00958157

>  <SCORE.RESTR.CAVITY>
0.00958157

>  <SCORE.RESTR.norm>
0.000281811

>  <SCORE.SYSTEM>
0

>  <SCORE.SYSTEM.CONST>
0

>  <SCORE.SYSTEM.DIHEDRAL>
0

>  <SCORE.SYSTEM.SOLV>
0

>  <SCORE.SYSTEM.norm>
0

>  <SCORE.heavy>
34

>  <SCORE.norm>
-0.432982

>  <RMSD>
9.049

$$$$
ligand
 OpenBabel01301917533D
libRbt.so/2013.1/901 2013/11/27
 34 36  0  0  0  0  0  0  0  0999 V2000
   20.0458   36.9944   31.4281 C   0  0  2  0  0  0  0  0  0  0  0  0
   20.3243   35.6027   31.2440 O   0  0  0  0  0  0  0  0  0  0  0  0
   22.1773   32.8018   33.9130 C   0  0  2  0  0  0  0  0  0  0  0  0
   23.1883   32.0460   34.6648 N   0  0  0  0  0  0  0  0  0  0  0  0
   22.5271   35.3867   36.6148 C   0  0  2  0  0  0  0  0  0  0  0  0
   18.6708   37.3135   30.7292 C   0  0  2  0  0  0  0  0  0  0  0  0
   17.5892   36.4954   31.3008 N   0  0  0  0  0  0  0  0  0  0  0  0
   22.5402   32.7001   32.3875 C   0  0  0  0  0  0  0  0  0  0  0  0
   23.8660   34.6663   37.0433 C   0  0  2  0  0  0  0  0  0  0  0  0
   24.6528   34.3707   35.9022 O   0  0  0  0  0  0  0  0  0  0  0  0
   18.7766   37.0644   29.1944 C   0  0  1  0  0  0  0  0  0  0  0  0
   17.5217   37.3547   28.5515 O   0  0  0  0  0  0  0  0  0  0  0  0
   21.4492   33.4915   31.5840 C   0  0  2  0  0  0  0  0  0  0  0  0
   21.7345   33.4425   30.1216 N   0  0  0  0  0  0  0  0  0  0  0  0
   23.4878   33.3396   37.8044 C   0  0  1  0  0  0  0  0  0  0  0  0
   24.7007   32.5970   38.2020 N   0  0  0  0  0  0  0  0  0  0  0  0
   19.9202   37.9429   28.6354 C   0  0  2  0  0  0  0  0  0  0  0  0
   20.0264   37.7381   27.2230 O   0  0  0  0  0  0  0  0  0  0  0  0
   21.3990   34.9821   32.0365 C   0  0  2  0  0  0  0  0  0  0  0  0
   22.6343   33.7001   39.0614 C   0  0  1  0  0  0  0  0  0  0  0  0
   23.4245   34.5121   39.9237 O   0  0  0  0  0  0  0  0  0  0  0  0
   21.2698   37.5626   29.3838 C   0  0  2  0  0  0  0  0  0  0  0  0
   21.1360   37.7712   30.8428 O   0  0  0  0  0  0  0  0  0  0  0  0
   21.1053   35.0426   33.5601 C   0  0  2  0  0  0  0  0  0  0  0  0
   21.0960   36.4133   33.9536 O   0  0  0  0  0  0  0  0  0  0  0  0
   21.3658   34.4879   38.6014 C   0  0  0  0  0  0  0  0  0  0  0  0
   21.7333   35.6936   37.8208 O   0  0  0  0  0  0  0  0  0  0  0  0
   22.4848   38.4003   28.8915 C   0  0  2  0  0  0  0  0  0  0  0  0
   22.7117   38.1315   27.5035 O   0  0  0  0  0  0  0  0  0  0  0  0
   22.1961   34.3176   34.3866 C   0  0  1  0  0  0  0  0  0  0  0  0
   21.8234   34.4039   35.7895 O   0  0  0  0  0  0  0  0  0  0  0  0
   23.7537   38.0622   29.6426 C   0  0  0  0  0  0  0  0  0  0  0  0
   22.2087   32.4585   39.8463 C   0  0  0  0  0  0  0  0  0  0  0  0
   24.5904   31.2301   37.6363 C   0  0  0  0  0  0  0  0  0  0  0  0
  1  2  1  6  0  0  0
  1  6  1  0  0  0  0
  1 23  1  0  0  0  0
  3  4  1  1  0  0  0
  3  8  1  0  0  0  0
  3 30  1  0  0  0  0
  5  9  1  0  0  0  0
  5 27  1  0  0  0  0
  5 31  1  6  0  0  0
  6  7  1  1  0  0  0
  6 11  1  0  0  0  0
  8 13  1  0  0  0  0
  9 10  1  6  0  0  0
  9 15  1  0  0  0  0
 11 12  1  6  0  0  0
 11 17  1  0  0  0  0
 13 14  1  6  0  0  0
 13 19  1  0  0  0  0
 15 16  1  1  0  0  0
 15 20  1  0  0  0  0
 16 34  1  0  0  0  0
 17 18  1  6  0  0  0
 17 22  1  0  0  0  0
 19  2  1  6  0  0  0
 19 24  1  0  0  0  0
 20 21  1  1  0  0  0
 20 26  1  0  0  0  0
 20 33  1  0  0  0  0
 22 23  1  1  0  0  0
 22 28  1  0  0  0  0
 24 25  1  1  0  0  0
 24 30  1  0  0  0  0
 26 27  1  0  0  0  0
 28 29  1  6  0  0  0
 28 32  1  0  0  0  0
 30 31  1  1  0  0  0
M  END
>  <CHROM.1>
-167.13490308,-179.26077772,-124.33065735,-62.38091581,142.00837594,-83.33049526
21.71589395,35.27554296,33.39014156,1.89774596,0.50454393,-1.32339262

>  <Name>
ligand

>  <RI>
0

>  <Rbt.Current_Directory>
/home/itssahil/PROJECTS/Mol_Feturizer/New_Systems/rnas/4p3s

>  <Rbt.Executable>
rbdock ($Id: //depot/dev/client3/rdock/2013.1/src/exe/rbdock.cxx#4 $)

>  <Rbt.Library>
libRbt.so (2013.1, Build901 2013/11/27)

>  <Rbt.Parameter_File>
/export/apps/rDock/src/rDock_2013.1_src/data/scripts/dock_solv.prm

>  <Rbt.Receptor>
prm/blind_docking_100.prm

>  <SCORE>
-2.89007

>  <SCORE.INTER>
-3.82435

>  <SCORE.INTER.CONST>
1

>  <SCORE.INTER.POLAR>
0

>  <SCORE.INTER.ROT>
6

>  <SCORE.INTER.SOLV>
14.5096

>  <SCORE.INTER.VDW>
-14.9861

>  <SCORE.INTER.norm>
-0.112481

>  <SCORE.INTRA>
-2.37293

>  <SCORE.INTRA.DIHEDRAL>
-6.39398

>  <SCORE.INTRA.DIHEDRAL.0>
15.8194

>  <SCORE.INTRA.POLAR>
0

>  <SCORE.INTRA.POLAR.0>
0

>  <SCORE.INTRA.REPUL>
0

>  <SCORE.INTRA.REPUL.0>
0

>  <SCORE.INTRA.SOLV>
1.51154

>  <SCORE.INTRA.SOLV.lig_0>
-71.9159

>  <SCORE.INTRA.VDW>
0.0682865

>  <SCORE.INTRA.VDW.0>
-3.53918

>  <SCORE.INTRA.norm>
-0.0697921

>  <SCORE.RESTR>
3.30721

>  <SCORE.RESTR.CAVITY>
3.30721

>  <SCORE.RESTR.norm>
0.0972709

>  <SCORE.SYSTEM>
0

>  <SCORE.SYSTEM.CONST>
0

>  <SCORE.SYSTEM.DIHEDRAL>
0

>  <SCORE.SYSTEM.SOLV>
0

>  <SCORE.SYSTEM.norm>
0

>  <SCORE.heavy>
34

>  <SCORE.norm>
-0.0850021

>  <RMSD>
9.052

$$$$
ligand
 OpenBabel01301917533D
libRbt.so/2013.1/901 2013/11/27
 34 36  0  0  0  0  0  0  0  0999 V2000
   19.4231   28.3747   37.4241 C   0  0  2  0  0  0  0  0  0  0  0  0
   18.0821   27.8752   37.4445 O   0  0  0  0  0  0  0  0  0  0  0  0
   15.9375   25.1956   34.8711 C   0  0  2  0  0  0  0  0  0  0  0  0
   15.2316   24.6383   33.7093 N   0  0  0  0  0  0  0  0  0  0  0  0
   17.5691   23.4051   33.0564 C   0  0  2  0  0  0  0  0  0  0  0  0
   19.7044   29.0742   38.8069 C   0  0  2  0  0  0  0  0  0  0  0  0
   19.5281   28.1273   39.9196 N   0  0  0  0  0  0  0  0  0  0  0  0
   15.2412   26.5529   35.2482 C   0  0  0  0  0  0  0  0  0  0  0  0
   18.0504   21.9238   33.3195 C   0  0  2  0  0  0  0  0  0  0  0  0
   17.4927   21.4319   34.5260 O   0  0  0  0  0  0  0  0  0  0  0  0
   18.7597   30.2999   38.9920 C   0  0  1  0  0  0  0  0  0  0  0  0
   19.0133   30.9424   40.2551 O   0  0  0  0  0  0  0  0  0  0  0  0
   15.9835   27.1378   36.5008 C   0  0  2  0  0  0  0  0  0  0  0  0
   15.3768   28.4356   36.9130 N   0  0  0  0  0  0  0  0  0  0  0  0
   19.6235   21.9268   33.4064 C   0  0  1  0  0  0  0  0  0  0  0  0
   20.1376   20.5715   33.6884 N   0  0  0  0  0  0  0  0  0  0  0  0
   18.9785   31.2680   37.8059 C   0  0  2  0  0  0  0  0  0  0  0  0
   18.1279   32.4080   37.9631 O   0  0  0  0  0  0  0  0  0  0  0  0
   17.4949   27.3645   36.1945 C   0  0  2  0  0  0  0  0  0  0  0  0
   20.2062   22.4601   32.0594 C   0  0  1  0  0  0  0  0  0  0  0  0
   19.8081   21.5768   31.0160 O   0  0  0  0  0  0  0  0  0  0  0  0
   18.6738   30.4943   36.4514 C   0  0  2  0  0  0  0  0  0  0  0  0
   19.5558   29.3140   36.3129 O   0  0  0  0  0  0  0  0  0  0  0  0
   18.1346   26.0175   35.7609 C   0  0  2  0  0  0  0  0  0  0  0  0
   19.5068   26.2585   35.4568 O   0  0  0  0  0  0  0  0  0  0  0  0
   19.6362   23.8904   31.7937 C   0  0  0  0  0  0  0  0  0  0  0  0
   18.1536   23.8881   31.7900 O   0  0  0  0  0  0  0  0  0  0  0  0
   18.8713   31.3877   35.1932 C   0  0  2  0  0  0  0  0  0  0  0  0
   18.1810   32.6279   35.3822 O   0  0  0  0  0  0  0  0  0  0  0  0
   17.4600   25.4412   34.4916 C   0  0  1  0  0  0  0  0  0  0  0  0
   18.1042   24.1753   34.1801 O   0  0  0  0  0  0  0  0  0  0  0  0
   18.3248   30.7392   33.9404 C   0  0  0  0  0  0  0  0  0  0  0  0
   21.7346   22.5127   32.0715 C   0  0  0  0  0  0  0  0  0  0  0  0
   20.3692   20.4794   35.1509 C   0  0  0  0  0  0  0  0  0  0  0  0
  1  2  1  1  0  0  0
  1  6  1  0  0  0  0
  1 23  1  0  0  0  0
  3  4  1  6  0  0  0
  3  8  1  0  0  0  0
  3 30  1  0  0  0  0
  5  9  1  0  0  0  0
  5 27  1  0  0  0  0
  5 31  1  1  0  0  0
  6  7  1  1  0  0  0
  6 11  1  0  0  0  0
  8 13  1  0  0  0  0
  9 10  1  1  0  0  0
  9 15  1  0  0  0  0
 11 12  1  1  0  0  0
 11 17  1  0  0  0  0
 13 14  1  6  0  0  0
 13 19  1  0  0  0  0
 15 16  1  6  0  0  0
 15 20  1  0  0  0  0
 16 34  1  0  0  0  0
 17 18  1  1  0  0  0
 17 22  1  0  0  0  0
 19  2  1  1  0  0  0
 19 24  1  0  0  0  0
 20 21  1  6  0  0  0
 20 26  1  0  0  0  0
 20 33  1  0  0  0  0
 22 23  1  6  0  0  0
 22 28  1  0  0  0  0
 24 25  1  6  0  0  0
 24 30  1  0  0  0  0
 26 27  1  0  0  0  0
 28 29  1  1  0  0  0
 28 32  1  0  0  0  0
 30 31  1  1  0  0  0
M  END
>  <CHROM.1>
170.40039653,-170.51315622,-96.65700611,-49.25935276,60.90954802,-158.47681897
18.44330957,26.42934750,35.31807476,-1.67508868,0.87503908,-2.56043833

>  <Name>
ligand

>  <RI>
0

>  <Rbt.Current_Directory>
/home/itssahil/PROJECTS/Mol_Feturizer/New_Systems/rnas/4p3s

>  <Rbt.Executable>
rbdock ($Id: //depot/dev/client3/rdock/2013.1/src/exe/rbdock.cxx#4 $)

>  <Rbt.Library>
libRbt.so (2013.1, Build901 2013/11/27)

>  <Rbt.Parameter_File>
/export/apps/rDock/src/rDock_2013.1_src/data/scripts/dock_solv.prm

>  <Rbt.Receptor>
prm/pocket_docking_6.prm

>  <SCORE>
-15.0702

>  <SCORE.INTER>
-10.3625

>  <SCORE.INTER.CONST>
1

>  <SCORE.INTER.POLAR>
0

>  <SCORE.INTER.ROT>
6

>  <SCORE.INTER.SOLV>
12.8593

>  <SCORE.INTER.VDW>
-18.7948

>  <SCORE.INTER.norm>
-0.304781

>  <SCORE.INTRA>
-4.70761

>  <SCORE.INTRA.DIHEDRAL>
-11.5419

>  <SCORE.INTRA.DIHEDRAL.0>
15.8194

>  <SCORE.INTRA.POLAR>
0

>  <SCORE.INTRA.POLAR.0>
0

>  <SCORE.INTRA.REPUL>
0

>  <SCORE.INTRA.REPUL.0>
0

>  <SCORE.INTRA.SOLV>
0.0005373

>  <SCORE.INTRA.SOLV.lig_0>
-71.9159

>  <SCORE.INTRA.VDW>
1.06307

>  <SCORE.INTRA.VDW.0>
-3.53918

>  <SCORE.INTRA.norm>
-0.138459

>  <SCORE.RESTR>
0

>  <SCORE.RESTR.CAVITY>
0

>  <SCORE.RESTR.norm>
0

>  <SCORE.SYSTEM>
0

>  <SCORE.SYSTEM.CONST>
0

>  <SCORE.SYSTEM.DIHEDRAL>
0

>  <SCORE.SYSTEM.SOLV>
0

>  <SCORE.SYSTEM.norm>
0

>  <SCORE.heavy>
34

>  <SCORE.norm>
-0.44324

>  <RMSD>
9.053

$$$$
ligand
 OpenBabel01301917533D
libRbt.so/2013.1/901 2013/11/27
 34 36  0  0  0  0  0  0  0  0999 V2000
   21.0788   29.9934   41.1368 C   0  0  2  0  0  0  0  0  0  0  0  0
   19.9042   30.5083   41.7719 O   0  0  0  0  0  0  0  0  0  0  0  0
   16.1172   31.7026   40.1487 C   0  0  2  0  0  0  0  0  0  0  0  0
   15.0686   32.4755   39.4694 N   0  0  0  0  0  0  0  0  0  0  0  0
   15.8385   30.9821   37.0210 C   0  0  2  0  0  0  0  0  0  0  0  0
   21.8985   29.1830   42.2102 C   0  0  2  0  0  0  0  0  0  0  0  0
   21.0931   28.0832   42.7650 N   0  0  0  0  0  0  0  0  0  0  0  0
   16.7643   32.6299   41.2399 C   0  0  0  0  0  0  0  0  0  0  0  0
   15.2890   29.7658   36.1761 C   0  0  2  0  0  0  0  0  0  0  0  0
   14.4229   28.9692   36.9659 O   0  0  0  0  0  0  0  0  0  0  0  0
   22.3714   30.1302   43.3539 C   0  0  1  0  0  0  0  0  0  0  0  0
   23.1210   29.3933   44.3376 O   0  0  0  0  0  0  0  0  0  0  0  0
   17.8709   31.7973   41.9778 C   0  0  2  0  0  0  0  0  0  0  0  0
   18.5350   32.6204   43.0285 N   0  0  0  0  0  0  0  0  0  0  0  0
   16.5195   28.9129   35.6855 C   0  0  1  0  0  0  0  0  0  0  0  0
   16.0703   27.7348   34.9166 N   0  0  0  0  0  0  0  0  0  0  0  0
   23.2139   31.2667   42.7289 C   0  0  2  0  0  0  0  0  0  0  0  0
   23.6690   32.1425   43.7652 O   0  0  0  0  0  0  0  0  0  0  0  0
   18.9524   31.2979   40.9726 C   0  0  2  0  0  0  0  0  0  0  0  0
   17.4455   29.8139   34.8085 C   0  0  1  0  0  0  0  0  0  0  0  0
   16.7063   30.2457   33.6707 O   0  0  0  0  0  0  0  0  0  0  0  0
   22.3220   32.0374   41.6628 C   0  0  2  0  0  0  0  0  0  0  0  0
   21.8531   31.1131   40.6064 O   0  0  0  0  0  0  0  0  0  0  0  0
   18.2686   30.4418   39.8722 C   0  0  2  0  0  0  0  0  0  0  0  0
   19.2733   30.0245   38.9501 O   0  0  0  0  0  0  0  0  0  0  0  0
   17.8945   31.0495   35.6530 C   0  0  0  0  0  0  0  0  0  0  0  0
   16.7267   31.8008   36.1726 O   0  0  0  0  0  0  0  0  0  0  0  0
   23.0867   33.2029   40.9720 C   0  0  2  0  0  0  0  0  0  0  0  0
   22.1898   33.9084   40.1070 O   0  0  0  0  0  0  0  0  0  0  0  0
   17.2088   31.2528   39.0865 C   0  0  1  0  0  0  0  0  0  0  0  0
   16.6082   30.3661   38.1027 O   0  0  0  0  0  0  0  0  0  0  0  0
   24.2457   32.7088   40.1346 C   0  0  0  0  0  0  0  0  0  0  0  0
   18.6789   29.0608   34.3081 C   0  0  0  0  0  0  0  0  0  0  0  0
   15.9885   26.5931   35.8603 C   0  0  0  0  0  0  0  0  0  0  0  0
  1  2  1  1  0  0  0
  1  6  1  0  0  0  0
  1 23  1  0  0  0  0
  3  4  1  6  0  0  0
  3  8  1  0  0  0  0
  3 30  1  0  0  0  0
  5  9  1  0  0  0  0
  5 27  1  0  0  0  0
  5 31  1  1  0  0  0
  6  7  1  1  0  0  0
  6 11  1  0  0  0  0
  8 13  1  0  0  0  0
  9 10  1  1  0  0  0
  9 15  1  0  0  0  0
 11 12  1  1  0  0  0
 11 17  1  0  0  0  0
 13 14  1  1  0  0  0
 13 19  1  0  0  0  0
 15 16  1  6  0  0  0
 15 20  1  0  0  0  0
 16 34  1  0  0  0  0
 17 18  1  1  0  0  0
 17 22  1  0  0  0  0
 19  2  1  1  0  0  0
 19 24  1  0  0  0  0
 20 21  1  6  0  0  0
 20 26  1  0  0  0  0
 20 33  1  0  0  0  0
 22 23  1  6  0  0  0
 22 28  1  0  0  0  0
 24 25  1  6  0  0  0
 24 30  1  0  0  0  0
 26 27  1  0  0  0  0
 28 29  1  6  0  0  0
 28 32  1  0  0  0  0
 30 31  1  6  0  0  0
M  END
>  <CHROM.1>
-179.31977135,-175.38336182,-94.42098218,-175.57875362,80.09891222,-177.98133706
19.02909930,30.68031340,39.38177406,-0.83131314,0.11461360,-1.92255729

>  <Name>
ligand

>  <RI>
0

>  <Rbt.Current_Directory>
/home/itssahil/PROJECTS/Mol_Feturizer/New_Systems/rnas/4p3s

>  <Rbt.Executable>
rbdock ($Id: //depot/dev/client3/rdock/2013.1/src/exe/rbdock.cxx#4 $)

>  <Rbt.Library>
libRbt.so (2013.1, Build901 2013/11/27)

>  <Rbt.Parameter_File>
/export/apps/rDock/src/rDock_2013.1_src/data/scripts/dock_solv.prm

>  <Rbt.Receptor>
prm/pocket_docking_7.prm

>  <SCORE>
-10.8336

>  <SCORE.INTER>
-4.67785

>  <SCORE.INTER.CONST>
1

>  <SCORE.INTER.POLAR>
0

>  <SCORE.INTER.ROT>
6

>  <SCORE.INTER.SOLV>
7.62408

>  <SCORE.INTER.VDW>
-13.2599

>  <SCORE.INTER.norm>
-0.137584

>  <SCORE.INTRA>
-6.15571

>  <SCORE.INTRA.DIHEDRAL>
-12.9758

>  <SCORE.INTRA.DIHEDRAL.0>
15.8194

>  <SCORE.INTRA.POLAR>
0

>  <SCORE.INTRA.POLAR.0>
0

>  <SCORE.INTRA.REPUL>
0

>  <SCORE.INTRA.REPUL.0>
0

>  <SCORE.INTRA.SOLV>
-1.13767

>  <SCORE.INTRA.SOLV.lig_0>
-71.9159

>  <SCORE.INTRA.VDW>
0.901014

>  <SCORE.INTRA.VDW.0>
-3.53918

>  <SCORE.INTRA.norm>
-0.18105

>  <SCORE.RESTR>
0

>  <SCORE.RESTR.CAVITY>
0

>  <SCORE.RESTR.norm>
0

>  <SCORE.SYSTEM>
0

>  <SCORE.SYSTEM.CONST>
0

>  <SCORE.SYSTEM.DIHEDRAL>
0

>  <SCORE.SYSTEM.SOLV>
0

>  <SCORE.SYSTEM.norm>
0

>  <SCORE.heavy>
34

>  <SCORE.norm>
-0.318634

>  <RMSD>
9.057

$$$$
ligand
 OpenBabel01301917533D
libRbt.so/2013.1/901 2013/11/27
 34 36  0  0  0  0  0  0  0  0999 V2000
   19.2338   34.9482   33.7999 C   0  0  2  0  0  0  0  0  0  0  0  0
   18.2179   34.8601   32.7958 O   0  0  0  0  0  0  0  0  0  0  0  0
   15.6192   32.2138   34.9511 C   0  0  2  0  0  0  0  0  0  0  0  0
   14.4537   31.4070   35.3378 N   0  0  0  0  0  0  0  0  0  0  0  0
   17.4830   30.0321   35.0807 C   0  0  2  0  0  0  0  0  0  0  0  0
   20.2203   36.1075   33.3956 C   0  0  2  0  0  0  0  0  0  0  0  0
   19.5050   37.3883   33.2780 N   0  0  0  0  0  0  0  0  0  0  0  0
   15.1258   33.6879   34.7214 C   0  0  0  0  0  0  0  0  0  0  0  0
   18.2987   28.7088   34.7998 C   0  0  2  0  0  0  0  0  0  0  0  0
   19.2096   28.9092   33.7328 O   0  0  0  0  0  0  0  0  0  0  0  0
   20.9306   35.7654   32.0512 C   0  0  1  0  0  0  0  0  0  0  0  0
   21.8334   36.8228   31.6777 O   0  0  0  0  0  0  0  0  0  0  0  0
   16.3745   34.5527   34.3273 C   0  0  2  0  0  0  0  0  0  0  0  0
   15.9780   35.9695   34.0871 N   0  0  0  0  0  0  0  0  0  0  0  0
   17.2741   27.5685   34.4361 C   0  0  1  0  0  0  0  0  0  0  0  0
   17.9780   26.3080   34.1253 N   0  0  0  0  0  0  0  0  0  0  0  0
   21.6699   34.4174   32.2194 C   0  0  2  0  0  0  0  0  0  0  0  0
   22.3401   34.0902   30.9980 O   0  0  0  0  0  0  0  0  0  0  0  0
   17.0514   33.9950   33.0389 C   0  0  2  0  0  0  0  0  0  0  0  0
   16.2949   27.3632   35.6350 C   0  0  1  0  0  0  0  0  0  0  0  0
   17.0521   26.9525   36.7688 O   0  0  0  0  0  0  0  0  0  0  0  0
   20.6127   33.3012   32.6226 C   0  0  2  0  0  0  0  0  0  0  0  0
   19.9239   33.6630   33.8814 O   0  0  0  0  0  0  0  0  0  0  0  0
   17.4650   32.5176   33.2792 C   0  0  2  0  0  0  0  0  0  0  0  0
   18.0520   32.0227   32.0775 O   0  0  0  0  0  0  0  0  0  0  0  0
   15.5750   28.7168   35.9364 C   0  0  0  0  0  0  0  0  0  0  0  0
   16.5519   29.7998   36.2023 O   0  0  0  0  0  0  0  0  0  0  0  0
   21.2640   31.9022   32.8202 C   0  0  2  0  0  0  0  0  0  0  0  0
   22.4587   32.0434   33.5966 O   0  0  0  0  0  0  0  0  0  0  0  0
   16.2449   31.6250   33.6155 C   0  0  1  0  0  0  0  0  0  0  0  0
   16.7313   30.2745   33.8486 O   0  0  0  0  0  0  0  0  0  0  0  0
   21.6396   31.2560   31.5049 C   0  0  0  0  0  0  0  0  0  0  0  0
   15.2521   26.2813   35.3507 C   0  0  0  0  0  0  0  0  0  0  0  0
   18.1645   26.2540   32.6546 C   0  0  0  0  0  0  0  0  0  0  0  0
  1  2  1  6  0  0  0
  1  6  1  0  0  0  0
  1 23  1  0  0  0  0
  3  4  1  6  0  0  0
  3  8  1  0  0  0  0
  3 30  1  0  0  0  0
  5  9  1  0  0  0  0
  5 27  1  0  0  0  0
  5 31  1  6  0  0  0
  6  7  1  6  0  0  0
  6 11  1  0  0  0  0
  8 13  1  0  0  0  0
  9 10  1  6  0  0  0
  9 15  1  0  0  0  0
 11 12  1  1  0  0  0
 11 17  1  0  0  0  0
 13 14  1  6  0  0  0
 13 19  1  0  0  0  0
 15 16  1  1  0  0  0
 15 20  1  0  0  0  0
 16 34  1  0  0  0  0
 17 18  1  6  0  0  0
 17 22  1  0  0  0  0
 19  2  1  1  0  0  0
 19 24  1  0  0  0  0
 20 21  1  1  0  0  0
 20 26  1  0  0  0  0
 20 33  1  0  0  0  0
 22 23  1  1  0  0  0
 22 28  1  0  0  0  0
 24 25  1  6  0  0  0
 24 30  1  0  0  0  0
 26 27  1  0  0  0  0
 28 29  1  1  0  0  0
 28 32  1  0  0  0  0
 30 31  1  1  0  0  0
M  END
>  <CHROM.1>
-170.58448155,59.79889838,-94.29078445,45.22875582,-43.87393902,-159.68605611
18.33626715,31.78928260,33.76820842,1.07969917,0.41612645,-0.11325533

>  <Name>
ligand

>  <RI>
0

>  <Rbt.Current_Directory>
/home/itssahil/PROJECTS/Mol_Feturizer/New_Systems/rnas/4p3s

>  <Rbt.Executable>
rbdock ($Id: //depot/dev/client3/rdock/2013.1/src/exe/rbdock.cxx#4 $)

>  <Rbt.Library>
libRbt.so (2013.1, Build901 2013/11/27)

>  <Rbt.Parameter_File>
/export/apps/rDock/src/rDock_2013.1_src/data/scripts/dock_solv.prm

>  <Rbt.Receptor>
prm/pocket_docking_7.prm

>  <SCORE>
-14.0143

>  <SCORE.INTER>
-11.46

>  <SCORE.INTER.CONST>
1

>  <SCORE.INTER.POLAR>
0

>  <SCORE.INTER.ROT>
6

>  <SCORE.INTER.SOLV>
14.3319

>  <SCORE.INTER.VDW>
-20.0173

>  <SCORE.INTER.norm>
-0.337059

>  <SCORE.INTRA>
-2.5543

>  <SCORE.INTRA.DIHEDRAL>
-10.7736

>  <SCORE.INTRA.DIHEDRAL.0>
15.8194

>  <SCORE.INTRA.POLAR>
0

>  <SCORE.INTRA.POLAR.0>
0

>  <SCORE.INTRA.REPUL>
0

>  <SCORE.INTRA.REPUL.0>
0

>  <SCORE.INTRA.SOLV>
2.67661

>  <SCORE.INTRA.SOLV.lig_0>
-71.9159

>  <SCORE.INTRA.VDW>
1.49418

>  <SCORE.INTRA.VDW.0>
-3.53918

>  <SCORE.INTRA.norm>
-0.0751264

>  <SCORE.RESTR>
0

>  <SCORE.RESTR.CAVITY>
0

>  <SCORE.RESTR.norm>
0

>  <SCORE.SYSTEM>
0

>  <SCORE.SYSTEM.CONST>
0

>  <SCORE.SYSTEM.DIHEDRAL>
0

>  <SCORE.SYSTEM.SOLV>
0

>  <SCORE.SYSTEM.norm>
0

>  <SCORE.heavy>
34

>  <SCORE.norm>
-0.412186

>  <RMSD>
9.061

$$$$
ligand
 OpenBabel01301917533D
libRbt.so/2013.1/901 2013/11/27
 34 36  0  0  0  0  0  0  0  0999 V2000
   21.4128   27.9430   37.2659 C   0  0  2  0  0  0  0  0  0  0  0  0
   20.0670   28.0533   37.7400 O   0  0  0  0  0  0  0  0  0  0  0  0
   16.2972   26.9003   36.0485 C   0  0  2  0  0  0  0  0  0  0  0  0
   15.1013   26.8599   35.1961 N   0  0  0  0  0  0  0  0  0  0  0  0
   16.8159   25.0143   33.3672 C   0  0  2  0  0  0  0  0  0  0  0  0
   22.3416   27.6367   38.5005 C   0  0  2  0  0  0  0  0  0  0  0  0
   21.9314   26.3917   39.1697 N   0  0  0  0  0  0  0  0  0  0  0  0
   16.4137   28.3509   36.6412 C   0  0  0  0  0  0  0  0  0  0  0  0
   16.8176   23.4519   33.1345 C   0  0  2  0  0  0  0  0  0  0  0  0
   16.0576   22.8036   34.1398 O   0  0  0  0  0  0  0  0  0  0  0  0
   22.3050   28.8241   39.5094 C   0  0  1  0  0  0  0  0  0  0  0  0
   23.1526   28.5481   40.6397 O   0  0  0  0  0  0  0  0  0  0  0  0
   17.6803   28.3876   37.5667 C   0  0  2  0  0  0  0  0  0  0  0  0
   17.8574   29.7429   38.1619 N   0  0  0  0  0  0  0  0  0  0  0  0
   18.3112   22.9517   33.1713 C   0  0  1  0  0  0  0  0  0  0  0  0
   18.3802   21.4871   32.9954 N   0  0  0  0  0  0  0  0  0  0  0  0
   22.7441   30.1081   38.7675 C   0  0  2  0  0  0  0  0  0  0  0  0
   22.7292   31.2100   39.6805 O   0  0  0  0  0  0  0  0  0  0  0  0
   18.9648   28.0195   36.7643 C   0  0  2  0  0  0  0  0  0  0  0  0
   19.1171   23.6732   32.0452 C   0  0  1  0  0  0  0  0  0  0  0  0
   18.5482   23.3206   30.7884 O   0  0  0  0  0  0  0  0  0  0  0  0
   21.7621   30.3518   37.5418 C   0  0  2  0  0  0  0  0  0  0  0  0
   21.7842   29.1977   36.6158 O   0  0  0  0  0  0  0  0  0  0  0  0
   18.7876   26.6097   36.1378 C   0  0  2  0  0  0  0  0  0  0  0  0
   19.9613   26.3109   35.3847 O   0  0  0  0  0  0  0  0  0  0  0  0
   19.0159   25.2173   32.2619 C   0  0  0  0  0  0  0  0  0  0  0  0
   17.6031   25.6649   32.3014 O   0  0  0  0  0  0  0  0  0  0  0  0
   22.1264   31.6253   36.7258 C   0  0  2  0  0  0  0  0  0  0  0  0
   21.2183   31.7571   35.6266 O   0  0  0  0  0  0  0  0  0  0  0  0
   17.5770   26.5555   35.1735 C   0  0  1  0  0  0  0  0  0  0  0  0
   17.4763   25.1986   34.6602 O   0  0  0  0  0  0  0  0  0  0  0  0
   23.5292   31.5613   36.1631 C   0  0  0  0  0  0  0  0  0  0  0  0
   20.5879   23.2544   32.0280 C   0  0  0  0  0  0  0  0  0  0  0  0
   18.9859   20.9198   34.2251 C   0  0  0  0  0  0  0  0  0  0  0  0
  1  2  1  1  0  0  0
  1  6  1  0  0  0  0
  1 23  1  0  0  0  0
  3  4  1  6  0  0  0
  3  8  1  0  0  0  0
  3 30  1  0  0  0  0
  5  9  1  0  0  0  0
  5 27  1  0  0  0  0
  5 31  1  1  0  0  0
  6  7  1  1  0  0  0
  6 11  1  0  0  0  0
  8 13  1  0  0  0  0
  9 10  1  1  0  0  0
  9 15  1  0  0  0  0
 11 12  1  1  0  0  0
 11 17  1  0  0  0  0
 13 14  1  6  0  0  0
 13 19  1  0  0  0  0
 15 16  1  6  0  0  0
 15 20  1  0  0  0  0
 16 34  1  0  0  0  0
 17 18  1  1  0  0  0
 17 22  1  0  0  0  0
 19  2  1  1  0  0  0
 19 24  1  0  0  0  0
 20 21  1  6  0  0  0
 20 26  1  0  0  0  0
 20 33  1  0  0  0  0
 22 23  1  6  0  0  0
 22 28  1  0  0  0  0
 24 25  1  6  0  0  0
 24 30  1  0  0  0  0
 26 27  1  0  0  0  0
 28 29  1  6  0  0  0
 28 32  1  0  0  0  0
 30 31  1  1  0  0  0
M  END
>  <CHROM.1>
-165.67902946,-171.19079086,-118.18744358,178.68088987,89.54088140,-177.63476410
19.53748754,26.87929082,35.75500190,-1.10153531,0.13624598,-2.52901049

>  <Name>
ligand

>  <RI>
0

>  <Rbt.Current_Directory>
/home/itssahil/PROJECTS/Mol_Feturizer/New_Systems/rnas/4p3s

>  <Rbt.Executable>
rbdock ($Id: //depot/dev/client3/rdock/2013.1/src/exe/rbdock.cxx#4 $)

>  <Rbt.Library>
libRbt.so (2013.1, Build901 2013/11/27)

>  <Rbt.Parameter_File>
/export/apps/rDock/src/rDock_2013.1_src/data/scripts/dock_solv.prm

>  <Rbt.Receptor>
prm/pocket_docking_4.prm

>  <SCORE>
-14.1071

>  <SCORE.INTER>
-9.03223

>  <SCORE.INTER.CONST>
1

>  <SCORE.INTER.POLAR>
0

>  <SCORE.INTER.ROT>
6

>  <SCORE.INTER.SOLV>
15.2226

>  <SCORE.INTER.VDW>
-18.6957

>  <SCORE.INTER.norm>
-0.265654

>  <SCORE.INTRA>
-5.07482

>  <SCORE.INTRA.DIHEDRAL>
-9.68594

>  <SCORE.INTRA.DIHEDRAL.0>
15.8194

>  <SCORE.INTRA.POLAR>
0

>  <SCORE.INTRA.POLAR.0>
0

>  <SCORE.INTRA.REPUL>
0

>  <SCORE.INTRA.REPUL.0>
0

>  <SCORE.INTRA.SOLV>
-1.14477

>  <SCORE.INTRA.SOLV.lig_0>
-71.9159

>  <SCORE.INTRA.VDW>
0.340532

>  <SCORE.INTRA.VDW.0>
-3.53918

>  <SCORE.INTRA.norm>
-0.14926

>  <SCORE.RESTR>
0

>  <SCORE.RESTR.CAVITY>
0

>  <SCORE.RESTR.norm>
0

>  <SCORE.SYSTEM>
0

>  <SCORE.SYSTEM.CONST>
0

>  <SCORE.SYSTEM.DIHEDRAL>
0

>  <SCORE.SYSTEM.SOLV>
0

>  <SCORE.SYSTEM.norm>
0

>  <SCORE.heavy>
34

>  <SCORE.norm>
-0.414913

>  <RMSD>
9.062

$$$$
ligand
 OpenBabel01301917533D
libRbt.so/2013.1/901 2013/11/27
 34 36  0  0  0  0  0  0  0  0999 V2000
   20.4039   28.3070   36.0547 C   0  0  2  0  0  0  0  0  0  0  0  0
   19.0072   28.4055   36.3508 O   0  0  0  0  0  0  0  0  0  0  0  0
   15.9162   25.6870   35.1435 C   0  0  2  0  0  0  0  0  0  0  0  0
   14.8558   25.0322   34.3654 N   0  0  0  0  0  0  0  0  0  0  0  0
   17.1458   23.3908   33.1222 C   0  0  2  0  0  0  0  0  0  0  0  0
   21.1964   29.0730   37.1799 C   0  0  2  0  0  0  0  0  0  0  0  0
   20.9127   28.4992   38.5051 N   0  0  0  0  0  0  0  0  0  0  0  0
   15.5308   27.2026   35.2969 C   0  0  0  0  0  0  0  0  0  0  0  0
   17.6899   21.9214   33.3225 C   0  0  2  0  0  0  0  0  0  0  0  0
   17.1673   21.3613   34.5149 O   0  0  0  0  0  0  0  0  0  0  0  0
   20.8278   30.5873   37.1620 C   0  0  1  0  0  0  0  0  0  0  0  0
   21.5499   31.2914   38.1892 O   0  0  0  0  0  0  0  0  0  0  0  0
   16.6541   27.8969   36.1445 C   0  0  2  0  0  0  0  0  0  0  0  0
   16.3559   29.3462   36.3259 N   0  0  0  0  0  0  0  0  0  0  0  0
   19.2625   21.9855   33.3928 C   0  0  1  0  0  0  0  0  0  0  0  0
   19.8345   20.6425   33.6166 N   0  0  0  0  0  0  0  0  0  0  0  0
   21.1431   31.1494   35.7561 C   0  0  2  0  0  0  0  0  0  0  0  0
   20.8228   32.5437   35.7218 O   0  0  0  0  0  0  0  0  0  0  0  0
   18.0422   27.7526   35.4504 C   0  0  2  0  0  0  0  0  0  0  0  0
   19.8067   22.5934   32.0614 C   0  0  1  0  0  0  0  0  0  0  0  0
   19.4320   21.7351   30.9888 O   0  0  0  0  0  0  0  0  0  0  0  0
   20.3078   30.3316   34.6792 C   0  0  2  0  0  0  0  0  0  0  0  0
   20.6456   28.8920   34.7379 O   0  0  0  0  0  0  0  0  0  0  0  0
   18.3597   26.2452   35.2544 C   0  0  2  0  0  0  0  0  0  0  0  0
   19.6176   26.1420   34.5905 O   0  0  0  0  0  0  0  0  0  0  0  0
   19.1760   24.0083   31.8574 C   0  0  0  0  0  0  0  0  0  0  0  0
   17.6948   23.9454   31.8693 O   0  0  0  0  0  0  0  0  0  0  0  0
   20.5617   30.8223   33.2249 C   0  0  2  0  0  0  0  0  0  0  0  0
   20.2555   32.2183   33.1378 O   0  0  0  0  0  0  0  0  0  0  0  0
   17.2976   25.5423   34.3734 C   0  0  1  0  0  0  0  0  0  0  0  0
   17.6630   24.1386   34.2691 O   0  0  0  0  0  0  0  0  0  0  0  0
   19.6988   30.0948   32.2176 C   0  0  0  0  0  0  0  0  0  0  0  0
   21.3318   22.7080   32.0593 C   0  0  0  0  0  0  0  0  0  0  0  0
   20.3136   20.5917   35.0197 C   0  0  0  0  0  0  0  0  0  0  0  0
  1  2  1  1  0  0  0
  1  6  1  0  0  0  0
  1 23  1  0  0  0  0
  3  4  1  6  0  0  0
  3  8  1  0  0  0  0
  3 30  1  0  0  0  0
  5  9  1  0  0  0  0
  5 27  1  0  0  0  0
  5 31  1  1  0  0  0
  6  7  1  1  0  0  0
  6 11  1  0  0  0  0
  8 13  1  0  0  0  0
  9 10  1  1  0  0  0
  9 15  1  0  0  0  0
 11 12  1  1  0  0  0
 11 17  1  0  0  0  0
 13 14  1  6  0  0  0
 13 19  1  0  0  0  0
 15 16  1  6  0  0  0
 15 20  1  0  0  0  0
 16 34  1  0  0  0  0
 17 18  1  1  0  0  0
 17 22  1  0  0  0  0
 19  2  1  1  0  0  0
 19 24  1  0  0  0  0
 20 21  1  6  0  0  0
 20 26  1  0  0  0  0
 20 33  1  0  0  0  0
 22 23  1  6  0  0  0
 22 28  1  0  0  0  0
 24 25  1  6  0  0  0
 24 30  1  0  0  0  0
 26 27  1  0  0  0  0
 28 29  1  1  0  0  0
 28 32  1  0  0  0  0
 30 31  1  1  0  0  0
M  END
>  <CHROM.1>
-179.30059316,173.13500122,-106.71568925,-56.96113668,87.39231269,-178.77615139
19.03803642,26.53807203,34.56926111,-1.36215554,-0.35832011,-2.75917207

>  <Name>
ligand

>  <RI>
0

>  <Rbt.Current_Directory>
/home/itssahil/PROJECTS/Mol_Feturizer/New_Systems/rnas/4p3s

>  <Rbt.Executable>
rbdock ($Id: //depot/dev/client3/rdock/2013.1/src/exe/rbdock.cxx#4 $)

>  <Rbt.Library>
libRbt.so (2013.1, Build901 2013/11/27)

>  <Rbt.Parameter_File>
/export/apps/rDock/src/rDock_2013.1_src/data/scripts/dock_solv.prm

>  <Rbt.Receptor>
prm/pocket_docking_5.prm

>  <SCORE>
-17.9995

>  <SCORE.INTER>
-12.2126

>  <SCORE.INTER.CONST>
1

>  <SCORE.INTER.POLAR>
0

>  <SCORE.INTER.ROT>
6

>  <SCORE.INTER.SOLV>
13.6379

>  <SCORE.INTER.VDW>
-20.2877

>  <SCORE.INTER.norm>
-0.359194

>  <SCORE.INTRA>
-5.78689

>  <SCORE.INTRA.DIHEDRAL>
-11.3113

>  <SCORE.INTRA.DIHEDRAL.0>
15.8194

>  <SCORE.INTRA.POLAR>
0

>  <SCORE.INTRA.POLAR.0>
0

>  <SCORE.INTRA.REPUL>
0

>  <SCORE.INTRA.REPUL.0>
0

>  <SCORE.INTRA.SOLV>
-1.24793

>  <SCORE.INTRA.SOLV.lig_0>
-71.9159

>  <SCORE.INTRA.VDW>
0.492744

>  <SCORE.INTRA.VDW.0>
-3.53918

>  <SCORE.INTRA.norm>
-0.170203

>  <SCORE.RESTR>
0

>  <SCORE.RESTR.CAVITY>
0

>  <SCORE.RESTR.norm>
0

>  <SCORE.SYSTEM>
0

>  <SCORE.SYSTEM.CONST>
0

>  <SCORE.SYSTEM.DIHEDRAL>
0

>  <SCORE.SYSTEM.SOLV>
0

>  <SCORE.SYSTEM.norm>
0

>  <SCORE.heavy>
34

>  <SCORE.norm>
-0.529397

>  <RMSD>
9.062

$$$$
ligand
 OpenBabel01301917533D
libRbt.so/2013.1/901 2013/11/27
 34 36  0  0  0  0  0  0  0  0999 V2000
   20.5842   36.7161   30.8727 C   0  0  2  0  0  0  0  0  0  0  0  0
   19.9825   35.4176   30.8662 O   0  0  0  0  0  0  0  0  0  0  0  0
   21.2579   31.4361   31.8273 C   0  0  2  0  0  0  0  0  0  0  0  0
   21.9981   30.1669   31.8272 N   0  0  0  0  0  0  0  0  0  0  0  0
   21.6106   31.8718   34.6260 C   0  0  2  0  0  0  0  0  0  0  0  0
   19.4460   37.7823   30.6523 C   0  0  2  0  0  0  0  0  0  0  0  0
   18.4252   37.6862   31.7081 N   0  0  0  0  0  0  0  0  0  0  0  0
   20.7752   31.7087   30.3570 C   0  0  0  0  0  0  0  0  0  0  0  0
   21.3562   33.0804   35.6109 C   0  0  2  0  0  0  0  0  0  0  0  0
   20.8397   34.1932   34.9014 O   0  0  0  0  0  0  0  0  0  0  0  0
   18.7888   37.5867   29.2528 C   0  0  1  0  0  0  0  0  0  0  0  0
   17.7476   38.5593   29.0472 O   0  0  0  0  0  0  0  0  0  0  0  0
   19.9684   33.0546   30.3618 C   0  0  2  0  0  0  0  0  0  0  0  0
   19.4821   33.3809   28.9908 N   0  0  0  0  0  0  0  0  0  0  0  0
   22.7264   33.4553   36.2922 C   0  0  1  0  0  0  0  0  0  0  0  0
   22.5640   34.6072   37.2020 N   0  0  0  0  0  0  0  0  0  0  0  0
   19.8931   37.6974   28.1756 C   0  0  2  0  0  0  0  0  0  0  0  0
   19.3080   37.5326   26.8801 O   0  0  0  0  0  0  0  0  0  0  0  0
   20.8538   34.2306   30.8740 C   0  0  2  0  0  0  0  0  0  0  0  0
   23.2611   32.2148   37.0754 C   0  0  1  0  0  0  0  0  0  0  0  0
   22.3205   31.8852   38.0923 O   0  0  0  0  0  0  0  0  0  0  0  0
   20.9992   36.5925   28.4617 C   0  0  2  0  0  0  0  0  0  0  0  0
   21.5841   36.7738   29.8090 O   0  0  0  0  0  0  0  0  0  0  0  0
   21.3676   33.8974   32.3011 C   0  0  2  0  0  0  0  0  0  0  0  0
   22.1988   34.9728   32.7328 O   0  0  0  0  0  0  0  0  0  0  0  0
   23.4142   31.0182   36.0824 C   0  0  0  0  0  0  0  0  0  0  0  0
   22.1360   30.7241   35.3911 O   0  0  0  0  0  0  0  0  0  0  0  0
   22.1618   36.6264   27.4284 C   0  0  2  0  0  0  0  0  0  0  0  0
   22.9534   35.4418   27.5699 O   0  0  0  0  0  0  0  0  0  0  0  0
   22.2166   32.6024   32.3203 C   0  0  1  0  0  0  0  0  0  0  0  0
   22.6281   32.3594   33.6937 O   0  0  0  0  0  0  0  0  0  0  0  0
   23.0711   37.8185   27.6304 C   0  0  0  0  0  0  0  0  0  0  0  0
   24.6043   32.4933   37.7517 C   0  0  0  0  0  0  0  0  0  0  0  0
   23.7178   35.5133   36.9821 C   0  0  0  0  0  0  0  0  0  0  0  0
  1  2  1  6  0  0  0
  1  6  1  0  0  0  0
  1 23  1  0  0  0  0
  3  4  1  6  0  0  0
  3  8  1  0  0  0  0
  3 30  1  0  0  0  0
  5  9  1  0  0  0  0
  5 27  1  0  0  0  0
  5 31  1  6  0  0  0
  6  7  1  1  0  0  0
  6 11  1  0  0  0  0
  8 13  1  0  0  0  0
  9 10  1  6  0  0  0
  9 15  1  0  0  0  0
 11 12  1  6  0  0  0
 11 17  1  0  0  0  0
 13 14  1  6  0  0  0
 13 19  1  0  0  0  0
 15 16  1  1  0  0  0
 15 20  1  0  0  0  0
 16 34  1  0  0  0  0
 17 18  1  6  0  0  0
 17 22  1  0  0  0  0
 19  2  1  1  0  0  0
 19 24  1  0  0  0  0
 20 21  1  1  0  0  0
 20 26  1  0  0  0  0
 20 33  1  0  0  0  0
 22 23  1  1  0  0  0
 22 28  1  0  0  0  0
 24 25  1  6  0  0  0
 24 30  1  0  0  0  0
 26 27  1  0  0  0  0
 28 29  1  1  0  0  0
 28 32  1  0  0  0  0
 30 31  1  1  0  0  0
M  END
>  <CHROM.1>
171.94612920,-160.41468260,-136.90312654,-167.55380446,-41.61932902,-110.33801629
21.37186273,34.46338396,32.17038582,2.79129333,1.27583778,-2.23633767

>  <Name>
ligand

>  <RI>
0

>  <Rbt.Current_Directory>
/home/itssahil/PROJECTS/Mol_Feturizer/New_Systems/rnas/4p3s

>  <Rbt.Executable>
rbdock ($Id: //depot/dev/client3/rdock/2013.1/src/exe/rbdock.cxx#4 $)

>  <Rbt.Library>
libRbt.so (2013.1, Build901 2013/11/27)

>  <Rbt.Parameter_File>
/export/apps/rDock/src/rDock_2013.1_src/data/scripts/dock_solv.prm

>  <Rbt.Receptor>
prm/blind_docking_100.prm

>  <SCORE>
4.95792

>  <SCORE.INTER>
1.74592

>  <SCORE.INTER.CONST>
1

>  <SCORE.INTER.POLAR>
0

>  <SCORE.INTER.ROT>
6

>  <SCORE.INTER.SOLV>
14.8585

>  <SCORE.INTER.VDW>
-11.3889

>  <SCORE.INTER.norm>
0.0513506

>  <SCORE.INTRA>
0.456602

>  <SCORE.INTRA.DIHEDRAL>
-3.89091

>  <SCORE.INTRA.DIHEDRAL.0>
15.8194

>  <SCORE.INTRA.POLAR>
0

>  <SCORE.INTRA.POLAR.0>
0

>  <SCORE.INTRA.REPUL>
0

>  <SCORE.INTRA.REPUL.0>
0

>  <SCORE.INTRA.SOLV>
0.342618

>  <SCORE.INTRA.SOLV.lig_0>
-71.9159

>  <SCORE.INTRA.VDW>
2.23075

>  <SCORE.INTRA.VDW.0>
-3.53918

>  <SCORE.INTRA.norm>
0.0134295

>  <SCORE.RESTR>
2.75539

>  <SCORE.RESTR.CAVITY>
2.75539

>  <SCORE.RESTR.norm>
0.081041

>  <SCORE.SYSTEM>
0

>  <SCORE.SYSTEM.CONST>
0

>  <SCORE.SYSTEM.DIHEDRAL>
0

>  <SCORE.SYSTEM.SOLV>
0

>  <SCORE.SYSTEM.norm>
0

>  <SCORE.heavy>
34

>  <SCORE.norm>
0.145821

>  <RMSD>
9.065

$$$$
ligand
 OpenBabel01301917533D
libRbt.so/2013.1/901 2013/11/27
 34 36  0  0  0  0  0  0  0  0999 V2000
   20.1256   28.4018   36.4908 C   0  0  2  0  0  0  0  0  0  0  0  0
   18.7290   28.2760   36.7772 O   0  0  0  0  0  0  0  0  0  0  0  0
   15.7773   25.6410   35.1200 C   0  0  2  0  0  0  0  0  0  0  0  0
   14.7880   25.0440   34.2126 N   0  0  0  0  0  0  0  0  0  0  0  0
   17.1136   23.5033   33.0596 C   0  0  2  0  0  0  0  0  0  0  0  0
   20.8096   29.1306   37.7080 C   0  0  2  0  0  0  0  0  0  0  0  0
   20.6091   28.3728   38.9536 N   0  0  0  0  0  0  0  0  0  0  0  0
   15.3594   27.1354   35.3674 C   0  0  0  0  0  0  0  0  0  0  0  0
   17.6256   22.0160   33.2044 C   0  0  2  0  0  0  0  0  0  0  0  0
   17.0561   21.4089   34.3515 O   0  0  0  0  0  0  0  0  0  0  0  0
   20.2396   30.5731   37.8611 C   0  0  1  0  0  0  0  0  0  0  0  0
   20.8621   31.2430   38.9729 O   0  0  0  0  0  0  0  0  0  0  0  0
   16.4057   27.7665   36.3519 C   0  0  2  0  0  0  0  0  0  0  0  0
   16.0736   29.1933   36.6282 N   0  0  0  0  0  0  0  0  0  0  0  0
   19.1961   22.0471   33.3258 C   0  0  1  0  0  0  0  0  0  0  0  0
   19.7374   20.6843   33.5012 N   0  0  0  0  0  0  0  0  0  0  0  0
   20.4728   31.3330   36.5344 C   0  0  2  0  0  0  0  0  0  0  0  0
   19.9668   32.6659   36.6579 O   0  0  0  0  0  0  0  0  0  0  0  0
   17.8439   27.6918   35.7557 C   0  0  2  0  0  0  0  0  0  0  0  0
   19.7924   22.7081   32.0430 C   0  0  1  0  0  0  0  0  0  0  0  0
   19.4368   21.9099   30.9188 O   0  0  0  0  0  0  0  0  0  0  0  0
   19.7534   30.5418   35.3586 C   0  0  2  0  0  0  0  0  0  0  0  0
   20.2830   29.1638   35.2542 O   0  0  0  0  0  0  0  0  0  0  0  0
   18.1972   26.2086   35.4615 C   0  0  2  0  0  0  0  0  0  0  0  0
   19.5027   26.1713   34.8889 O   0  0  0  0  0  0  0  0  0  0  0  0
   19.1930   24.1429   31.8891 C   0  0  0  0  0  0  0  0  0  0  0  0
   17.7113   24.1074   31.8526 O   0  0  0  0  0  0  0  0  0  0  0  0
   19.9354   31.2289   33.9747 C   0  0  2  0  0  0  0  0  0  0  0  0
   19.3834   32.5490   34.0272 O   0  0  0  0  0  0  0  0  0  0  0  0
   17.2145   25.5721   34.4478 C   0  0  1  0  0  0  0  0  0  0  0  0
   17.6072   24.1851   34.2569 O   0  0  0  0  0  0  0  0  0  0  0  0
   19.2326   30.4763   32.8664 C   0  0  0  0  0  0  0  0  0  0  0  0
   21.3185   22.7940   32.0932 C   0  0  0  0  0  0  0  0  0  0  0  0
   20.2691   20.5917   34.8830 C   0  0  0  0  0  0  0  0  0  0  0  0
  1  2  1  1  0  0  0
  1  6  1  0  0  0  0
  1 23  1  0  0  0  0
  3  4  1  6  0  0  0
  3  8  1  0  0  0  0
  3 30  1  0  0  0  0
  5  9  1  0  0  0  0
  5 27  1  0  0  0  0
  5 31  1  1  0  0  0
  6  7  1  1  0  0  0
  6 11  1  0  0  0  0
  8 13  1  0  0  0  0
  9 10  1  1  0  0  0
  9 15  1  0  0  0  0
 11 12  1  1  0  0  0
 11 17  1  0  0  0  0
 13 14  1  6  0  0  0
 13 19  1  0  0  0  0
 15 16  1  6  0  0  0
 15 20  1  0  0  0  0
 16 34  1  0  0  0  0
 17 18  1  1  0  0  0
 17 22  1  0  0  0  0
 19  2  1  1  0  0  0
 19 24  1  0  0  0  0
 20 21  1  6  0  0  0
 20 26  1  0  0  0  0
 20 33  1  0  0  0  0
 22 23  1  6  0  0  0
 22 28  1  0  0  0  0
 24 25  1  6  0  0  0
 24 30  1  0  0  0  0
 26 27  1  0  0  0  0
 28 29  1  1  0  0  0
 28 32  1  0  0  0  0
 30 31  1  1  0  0  0
M  END
>  <CHROM.1>
176.58570708,-177.29575021,-111.11067809,-59.77848331,83.39885423,-176.15186718
18.77501091,26.61014281,34.83979135,-1.44578534,-0.13755080,-2.73536745

>  <Name>
ligand

>  <RI>
0

>  <Rbt.Current_Directory>
/home/itssahil/PROJECTS/Mol_Feturizer/New_Systems/rnas/4p3s

>  <Rbt.Executable>
rbdock ($Id: //depot/dev/client3/rdock/2013.1/src/exe/rbdock.cxx#4 $)

>  <Rbt.Library>
libRbt.so (2013.1, Build901 2013/11/27)

>  <Rbt.Parameter_File>
/export/apps/rDock/src/rDock_2013.1_src/data/scripts/dock_solv.prm

>  <Rbt.Receptor>
prm/pocket_docking_6.prm

>  <SCORE>
-17.6952

>  <SCORE.INTER>
-11.2965

>  <SCORE.INTER.CONST>
1

>  <SCORE.INTER.POLAR>
0

>  <SCORE.INTER.ROT>
6

>  <SCORE.INTER.SOLV>
12.6376

>  <SCORE.INTER.VDW>
-19.3436

>  <SCORE.INTER.norm>
-0.332251

>  <SCORE.INTRA>
-6.39864

>  <SCORE.INTRA.DIHEDRAL>
-12.0639

>  <SCORE.INTRA.DIHEDRAL.0>
15.8194

>  <SCORE.INTRA.POLAR>
0

>  <SCORE.INTRA.POLAR.0>
0

>  <SCORE.INTRA.REPUL>
0

>  <SCORE.INTRA.REPUL.0>
0

>  <SCORE.INTRA.SOLV>
-1.03141

>  <SCORE.INTRA.SOLV.lig_0>
-71.9159

>  <SCORE.INTRA.VDW>
0.149026

>  <SCORE.INTRA.VDW.0>
-3.53918

>  <SCORE.INTRA.norm>
-0.188195

>  <SCORE.RESTR>
0

>  <SCORE.RESTR.CAVITY>
0

>  <SCORE.RESTR.norm>
0

>  <SCORE.SYSTEM>
0

>  <SCORE.SYSTEM.CONST>
0

>  <SCORE.SYSTEM.DIHEDRAL>
0

>  <SCORE.SYSTEM.SOLV>
0

>  <SCORE.SYSTEM.norm>
0

>  <SCORE.heavy>
34

>  <SCORE.norm>
-0.520446

>  <RMSD>
9.065

$$$$
ligand
 OpenBabel01301917533D
libRbt.so/2013.1/901 2013/11/27
 34 36  0  0  0  0  0  0  0  0999 V2000
   19.5789   30.1325   37.3515 C   0  0  2  0  0  0  0  0  0  0  0  0
   19.4784   28.7886   36.8697 O   0  0  0  0  0  0  0  0  0  0  0  0
   16.1133   26.3239   35.8683 C   0  0  2  0  0  0  0  0  0  0  0  0
   14.8402   25.8595   35.3006 N   0  0  0  0  0  0  0  0  0  0  0  0
   17.5632   25.3978   32.5388 C   0  0  2  0  0  0  0  0  0  0  0  0
   19.9761   31.0569   36.1396 C   0  0  2  0  0  0  0  0  0  0  0  0
   18.9744   30.9724   35.0647 N   0  0  0  0  0  0  0  0  0  0  0  0
   15.8299   27.6551   36.6536 C   0  0  0  0  0  0  0  0  0  0  0  0
   17.1767   23.9488   32.0427 C   0  0  2  0  0  0  0  0  0  0  0  0
   15.8301   23.6576   32.3750 O   0  0  0  0  0  0  0  0  0  0  0  0
   21.3806   30.6569   35.5953 C   0  0  1  0  0  0  0  0  0  0  0  0
   21.7476   31.4993   34.4872 O   0  0  0  0  0  0  0  0  0  0  0  0
   17.1865   28.1398   37.2756 C   0  0  2  0  0  0  0  0  0  0  0  0
   16.9935   29.4084   38.0343 N   0  0  0  0  0  0  0  0  0  0  0  0
   18.1455   22.9178   32.7362 C   0  0  1  0  0  0  0  0  0  0  0  0
   17.8122   21.5345   32.3408 N   0  0  0  0  0  0  0  0  0  0  0  0
   22.4005   30.7616   36.7533 C   0  0  2  0  0  0  0  0  0  0  0  0
   23.7011   30.4097   36.2711 O   0  0  0  0  0  0  0  0  0  0  0  0
   18.2534   28.3764   36.1642 C   0  0  2  0  0  0  0  0  0  0  0  0
   19.6172   23.2570   32.3399 C   0  0  1  0  0  0  0  0  0  0  0  0
   19.7447   23.1250   30.9279 O   0  0  0  0  0  0  0  0  0  0  0  0
   21.9356   29.8027   37.9325 C   0  0  2  0  0  0  0  0  0  0  0  0
   20.5854   30.1762   38.4096 O   0  0  0  0  0  0  0  0  0  0  0  0
   18.4586   27.0601   35.3663 C   0  0  2  0  0  0  0  0  0  0  0  0
   19.4141   27.3119   34.3380 O   0  0  0  0  0  0  0  0  0  0  0  0
   19.9296   24.7268   32.7684 C   0  0  0  0  0  0  0  0  0  0  0  0
   18.9644   25.6798   32.1700 O   0  0  0  0  0  0  0  0  0  0  0  0
   22.9004   29.8414   39.1523 C   0  0  2  0  0  0  0  0  0  0  0  0
   24.2135   29.4601   38.7276 O   0  0  0  0  0  0  0  0  0  0  0  0
   17.1480   26.5846   34.6920 C   0  0  1  0  0  0  0  0  0  0  0  0
   17.4313   25.3400   33.9952 O   0  0  0  0  0  0  0  0  0  0  0  0
   22.4735   28.8906   40.2488 C   0  0  0  0  0  0  0  0  0  0  0  0
   20.6245   22.3089   32.9922 C   0  0  0  0  0  0  0  0  0  0  0  0
   17.0914   20.9091   33.4767 C   0  0  0  0  0  0  0  0  0  0  0  0
  1  2  1  6  0  0  0
  1  6  1  0  0  0  0
  1 23  1  0  0  0  0
  3  4  1  6  0  0  0
  3  8  1  0  0  0  0
  3 30  1  0  0  0  0
  5  9  1  0  0  0  0
  5 27  1  0  0  0  0
  5 31  1  1  0  0  0
  6  7  1  6  0  0  0
  6 11  1  0  0  0  0
  8 13  1  0  0  0  0
  9 10  1  1  0  0  0
  9 15  1  0  0  0  0
 11 12  1  6  0  0  0
 11 17  1  0  0  0  0
 13 14  1  6  0  0  0
 13 19  1  0  0  0  0
 15 16  1  6  0  0  0
 15 20  1  0  0  0  0
 16 34  1  0  0  0  0
 17 18  1  6  0  0  0
 17 22  1  0  0  0  0
 19  2  1  1  0  0  0
 19 24  1  0  0  0  0
 20 21  1  6  0  0  0
 20 26  1  0  0  0  0
 20 33  1  0  0  0  0
 22 23  1  1  0  0  0
 22 28  1  0  0  0  0
 24 25  1  6  0  0  0
 24 30  1  0  0  0  0
 26 27  1  0  0  0  0
 28 29  1  6  0  0  0
 28 32  1  0  0  0  0
 30 31  1  1  0  0  0
M  END
>  <CHROM.1>
-80.03682019,-77.68551102,-103.45160639,-58.54985043,140.63930029,-153.88586239
19.26310757,27.10744274,35.20347796,1.14227971,0.11348052,0.66644605

>  <Name>
ligand

>  <RI>
0

>  <Rbt.Current_Directory>
/home/itssahil/PROJECTS/Mol_Feturizer/New_Systems/rnas/4p3s

>  <Rbt.Executable>
rbdock ($Id: //depot/dev/client3/rdock/2013.1/src/exe/rbdock.cxx#4 $)

>  <Rbt.Library>
libRbt.so (2013.1, Build901 2013/11/27)

>  <Rbt.Parameter_File>
/export/apps/rDock/src/rDock_2013.1_src/data/scripts/dock_solv.prm

>  <Rbt.Receptor>
prm/pocket_docking_4.prm

>  <SCORE>
-6.48044

>  <SCORE.INTER>
-6.45377

>  <SCORE.INTER.CONST>
1

>  <SCORE.INTER.POLAR>
0

>  <SCORE.INTER.ROT>
6

>  <SCORE.INTER.SOLV>
16.1049

>  <SCORE.INTER.VDW>
-17.2708

>  <SCORE.INTER.norm>
-0.189817

>  <SCORE.INTRA>
-0.0345774

>  <SCORE.INTRA.DIHEDRAL>
-3.41826

>  <SCORE.INTRA.DIHEDRAL.0>
15.8194

>  <SCORE.INTRA.POLAR>
0

>  <SCORE.INTRA.POLAR.0>
0

>  <SCORE.INTRA.REPUL>
0

>  <SCORE.INTRA.REPUL.0>
0

>  <SCORE.INTRA.SOLV>
2.29739

>  <SCORE.INTRA.SOLV.lig_0>
-71.9159

>  <SCORE.INTRA.VDW>
0.525858

>  <SCORE.INTRA.VDW.0>
-3.53918

>  <SCORE.INTRA.norm>
-0.00101698

>  <SCORE.RESTR>
0.00790472

>  <SCORE.RESTR.CAVITY>
0.00790472

>  <SCORE.RESTR.norm>
0.000232492

>  <SCORE.SYSTEM>
0

>  <SCORE.SYSTEM.CONST>
0

>  <SCORE.SYSTEM.DIHEDRAL>
0

>  <SCORE.SYSTEM.SOLV>
0

>  <SCORE.SYSTEM.norm>
0

>  <SCORE.heavy>
34

>  <SCORE.norm>
-0.190601

>  <RMSD>
9.069

$$$$
ligand
 OpenBabel01301917533D
libRbt.so/2013.1/901 2013/11/27
 34 36  0  0  0  0  0  0  0  0999 V2000
   21.2695   31.1641   33.7460 C   0  0  2  0  0  0  0  0  0  0  0  0
   20.0304   31.8405   33.9807 O   0  0  0  0  0  0  0  0  0  0  0  0
   18.9639   32.4726   29.8740 C   0  0  2  0  0  0  0  0  0  0  0  0
   18.1792   32.6859   28.6503 N   0  0  0  0  0  0  0  0  0  0  0  0
   18.4708   35.6496   29.2685 C   0  0  2  0  0  0  0  0  0  0  0  0
   22.0172   31.0229   35.1250 C   0  0  2  0  0  0  0  0  0  0  0  0
   21.1995   30.2718   36.0910 N   0  0  0  0  0  0  0  0  0  0  0  0
   18.4134   31.1791   30.5761 C   0  0  0  0  0  0  0  0  0  0  0  0
   19.3629   36.8326   28.7207 C   0  0  2  0  0  0  0  0  0  0  0  0
   20.4675   36.3210   27.9950 O   0  0  0  0  0  0  0  0  0  0  0  0
   22.3627   32.4311   35.6966 C   0  0  1  0  0  0  0  0  0  0  0  0
   23.0462   32.3067   36.9574 O   0  0  0  0  0  0  0  0  0  0  0  0
   19.2647   30.9414   31.8727 C   0  0  2  0  0  0  0  0  0  0  0  0
   18.7916   29.7272   32.5969 N   0  0  0  0  0  0  0  0  0  0  0  0
   19.8632   37.6805   29.9508 C   0  0  1  0  0  0  0  0  0  0  0  0
   20.7362   38.7861   29.5077 N   0  0  0  0  0  0  0  0  0  0  0  0
   23.2223   33.1832   34.6538 C   0  0  2  0  0  0  0  0  0  0  0  0
   23.5613   34.4763   35.1648 O   0  0  0  0  0  0  0  0  0  0  0  0
   19.1700   32.1669   32.8311 C   0  0  2  0  0  0  0  0  0  0  0  0
   18.6249   38.2402   30.7200 C   0  0  1  0  0  0  0  0  0  0  0  0
   17.8982   39.0938   29.8421 O   0  0  0  0  0  0  0  0  0  0  0  0
   22.4032   33.2883   33.2958 C   0  0  2  0  0  0  0  0  0  0  0  0
   22.0536   31.9422   32.7899 O   0  0  0  0  0  0  0  0  0  0  0  0
   19.6581   33.4374   32.0835 C   0  0  2  0  0  0  0  0  0  0  0  0
   19.5319   34.5470   32.9704 O   0  0  0  0  0  0  0  0  0  0  0  0
   17.7248   37.0437   31.1666 C   0  0  0  0  0  0  0  0  0  0  0  0
   17.3230   36.2094   30.0087 O   0  0  0  0  0  0  0  0  0  0  0  0
   23.1902   34.0291   32.1768 C   0  0  2  0  0  0  0  0  0  0  0  0
   24.5218   34.2930   32.6322 O   0  0  0  0  0  0  0  0  0  0  0  0
   18.8010   33.7321   30.8277 C   0  0  1  0  0  0  0  0  0  0  0  0
   19.3465   34.9162   30.1835 O   0  0  0  0  0  0  0  0  0  0  0  0
   22.5545   35.3524   31.8115 C   0  0  0  0  0  0  0  0  0  0  0  0
   19.0286   39.0618   31.9451 C   0  0  0  0  0  0  0  0  0  0  0  0
   22.1400   38.3588   29.7263 C   0  0  0  0  0  0  0  0  0  0  0  0
  1  2  1  1  0  0  0
  1  6  1  0  0  0  0
  1 23  1  0  0  0  0
  3  4  1  6  0  0  0
  3  8  1  0  0  0  0
  3 30  1  0  0  0  0
  5  9  1  0  0  0  0
  5 27  1  0  0  0  0
  5 31  1  1  0  0  0
  6  7  1  1  0  0  0
  6 11  1  0  0  0  0
  8 13  1  0  0  0  0
  9 10  1  1  0  0  0
  9 15  1  0  0  0  0
 11 12  1  1  0  0  0
 11 17  1  0  0  0  0
 13 14  1  1  0  0  0
 13 19  1  0  0  0  0
 15 16  1  6  0  0  0
 15 20  1  0  0  0  0
 16 34  1  0  0  0  0
 17 18  1  1  0  0  0
 17 22  1  0  0  0  0
 19  2  1  1  0  0  0
 19 24  1  0  0  0  0
 20 21  1  6  0  0  0
 20 26  1  0  0  0  0
 20 33  1  0  0  0  0
 22 23  1  6  0  0  0
 22 28  1  0  0  0  0
 24 25  1  1  0  0  0
 24 30  1  0  0  0  0
 26 27  1  0  0  0  0
 28 29  1  1  0  0  0
 28 32  1  0  0  0  0
 30 31  1  6  0  0  0
M  END
>  <CHROM.1>
176.59117984,38.97934573,-99.93580918,6.42667253,84.92065392,-178.52224195
20.41134933,34.29782437,31.93171579,1.11266886,0.68059326,2.72716281

>  <Name>
ligand

>  <RI>
0

>  <Rbt.Current_Directory>
/home/itssahil/PROJECTS/Mol_Feturizer/New_Systems/rnas/4p3s

>  <Rbt.Executable>
rbdock ($Id: //depot/dev/client3/rdock/2013.1/src/exe/rbdock.cxx#4 $)

>  <Rbt.Library>
libRbt.so (2013.1, Build901 2013/11/27)

>  <Rbt.Parameter_File>
/export/apps/rDock/src/rDock_2013.1_src/data/scripts/dock_solv.prm

>  <Rbt.Receptor>
prm/blind_docking_100.prm

>  <SCORE>
3.84453

>  <SCORE.INTER>
0.352751

>  <SCORE.INTER.CONST>
1

>  <SCORE.INTER.POLAR>
0

>  <SCORE.INTER.ROT>
6

>  <SCORE.INTER.SOLV>
14.7172

>  <SCORE.INTER.VDW>
-12.2705

>  <SCORE.INTER.norm>
0.010375

>  <SCORE.INTRA>
-1.35332

>  <SCORE.INTRA.DIHEDRAL>
-4.95769

>  <SCORE.INTRA.DIHEDRAL.0>
15.8194

>  <SCORE.INTRA.POLAR>
0

>  <SCORE.INTRA.POLAR.0>
0

>  <SCORE.INTRA.REPUL>
0

>  <SCORE.INTRA.REPUL.0>
0

>  <SCORE.INTRA.SOLV>
0.809414

>  <SCORE.INTRA.SOLV.lig_0>
-71.9159

>  <SCORE.INTRA.VDW>
0.720823

>  <SCORE.INTRA.VDW.0>
-3.53918

>  <SCORE.INTRA.norm>
-0.0398034

>  <SCORE.RESTR>
4.84509

>  <SCORE.RESTR.CAVITY>
4.84509

>  <SCORE.RESTR.norm>
0.142503

>  <SCORE.SYSTEM>
0

>  <SCORE.SYSTEM.CONST>
0

>  <SCORE.SYSTEM.DIHEDRAL>
0

>  <SCORE.SYSTEM.SOLV>
0

>  <SCORE.SYSTEM.norm>
0

>  <SCORE.heavy>
34

>  <SCORE.norm>
0.113074

>  <RMSD>
9.071

$$$$
ligand
 OpenBabel01301917533D
libRbt.so/2013.1/901 2013/11/27
 34 36  0  0  0  0  0  0  0  0999 V2000
   21.6103   27.8694   36.9232 C   0  0  2  0  0  0  0  0  0  0  0  0
   20.3437   27.8268   37.5882 O   0  0  0  0  0  0  0  0  0  0  0  0
   16.4767   26.6227   36.1746 C   0  0  2  0  0  0  0  0  0  0  0  0
   15.1741   26.6233   35.4949 N   0  0  0  0  0  0  0  0  0  0  0  0
   17.5906   25.5447   32.8412 C   0  0  2  0  0  0  0  0  0  0  0  0
   22.7230   27.4797   37.9675 C   0  0  2  0  0  0  0  0  0  0  0  0
   22.4792   26.1367   38.5178 N   0  0  0  0  0  0  0  0  0  0  0  0
   16.5547   27.9180   37.0607 C   0  0  0  0  0  0  0  0  0  0  0  0
   17.1068   24.1422   32.2988 C   0  0  2  0  0  0  0  0  0  0  0  0
   15.7814   23.8797   32.7265 O   0  0  0  0  0  0  0  0  0  0  0  0
   22.7722   28.5292   39.1186 C   0  0  1  0  0  0  0  0  0  0  0  0
   23.7881   28.1767   40.0757 O   0  0  0  0  0  0  0  0  0  0  0  0
   17.9382   27.9066   37.8011 C   0  0  2  0  0  0  0  0  0  0  0  0
   18.0846   29.1161   38.6603 N   0  0  0  0  0  0  0  0  0  0  0  0
   18.0870   23.0383   32.8491 C   0  0  1  0  0  0  0  0  0  0  0  0
   17.6670   21.6936   32.4061 N   0  0  0  0  0  0  0  0  0  0  0  0
   23.0321   29.9219   38.4981 C   0  0  2  0  0  0  0  0  0  0  0  0
   23.0932   30.9000   39.5409 O   0  0  0  0  0  0  0  0  0  0  0  0
   19.1143   27.8710   36.7790 C   0  0  2  0  0  0  0  0  0  0  0  0
   19.5337   23.3482   32.3498 C   0  0  1  0  0  0  0  0  0  0  0  0
   19.5393   23.2959   30.9269 O   0  0  0  0  0  0  0  0  0  0  0  0
   21.8712   30.2447   37.4617 C   0  0  2  0  0  0  0  0  0  0  0  0
   21.8181   29.2169   36.3982 O   0  0  0  0  0  0  0  0  0  0  0  0
   18.9679   26.6153   35.8772 C   0  0  2  0  0  0  0  0  0  0  0  0
   20.0363   26.6235   34.9326 O   0  0  0  0  0  0  0  0  0  0  0  0
   19.9390   24.7779   32.8325 C   0  0  0  0  0  0  0  0  0  0  0  0
   18.9670   25.7984   32.3721 O   0  0  0  0  0  0  0  0  0  0  0  0
   22.0470   31.6307   36.7773 C   0  0  2  0  0  0  0  0  0  0  0  0
   20.9847   31.8314   35.8384 O   0  0  0  0  0  0  0  0  0  0  0  0
   17.6352   26.6245   35.0883 C   0  0  1  0  0  0  0  0  0  0  0  0
   17.5765   25.4052   34.2981 O   0  0  0  0  0  0  0  0  0  0  0  0
   23.3558   31.7349   36.0257 C   0  0  0  0  0  0  0  0  0  0  0  0
   20.5522   22.3280   32.8605 C   0  0  0  0  0  0  0  0  0  0  0  0
   17.0486   21.0148   33.5712 C   0  0  0  0  0  0  0  0  0  0  0  0
  1  2  1  1  0  0  0
  1  6  1  0  0  0  0
  1 23  1  0  0  0  0
  3  4  1  6  0  0  0
  3  8  1  0  0  0  0
  3 30  1  0  0  0  0
  5  9  1  0  0  0  0
  5 27  1  0  0  0  0
  5 31  1  1  0  0  0
  6  7  1  1  0  0  0
  6 11  1  0  0  0  0
  8 13  1  0  0  0  0
  9 10  1  1  0  0  0
  9 15  1  0  0  0  0
 11 12  1  1  0  0  0
 11 17  1  0  0  0  0
 13 14  1  6  0  0  0
 13 19  1  0  0  0  0
 15 16  1  6  0  0  0
 15 20  1  0  0  0  0
 16 34  1  0  0  0  0
 17 18  1  1  0  0  0
 17 22  1  0  0  0  0
 19  2  1  1  0  0  0
 19 24  1  0  0  0  0
 20 21  1  6  0  0  0
 20 26  1  0  0  0  0
 20 33  1  0  0  0  0
 22 23  1  6  0  0  0
 22 28  1  0  0  0  0
 24 25  1  6  0  0  0
 24 30  1  0  0  0  0
 26 27  1  0  0  0  0
 28 29  1  6  0  0  0
 28 32  1  0  0  0  0
 30 31  1  6  0  0  0
M  END
>  <CHROM.1>
-167.23905239,-176.22610245,-104.87531277,178.57408098,129.51045906,-164.27491827
19.70765383,26.81936249,35.59772648,-1.07659201,0.04113636,-2.46999221

>  <Name>
ligand

>  <RI>
0

>  <Rbt.Current_Directory>
/home/itssahil/PROJECTS/Mol_Feturizer/New_Systems/rnas/4p3s

>  <Rbt.Executable>
rbdock ($Id: //depot/dev/client3/rdock/2013.1/src/exe/rbdock.cxx#4 $)

>  <Rbt.Library>
libRbt.so (2013.1, Build901 2013/11/27)

>  <Rbt.Parameter_File>
/export/apps/rDock/src/rDock_2013.1_src/data/scripts/dock_solv.prm

>  <Rbt.Receptor>
prm/pocket_docking_4.prm

>  <SCORE>
-11.324

>  <SCORE.INTER>
-8.45624

>  <SCORE.INTER.CONST>
1

>  <SCORE.INTER.POLAR>
0

>  <SCORE.INTER.ROT>
6

>  <SCORE.INTER.SOLV>
17.6054

>  <SCORE.INTER.VDW>
-19.106

>  <SCORE.INTER.norm>
-0.248713

>  <SCORE.INTRA>
-2.8678

>  <SCORE.INTRA.DIHEDRAL>
-6.05311

>  <SCORE.INTRA.DIHEDRAL.0>
15.8194

>  <SCORE.INTRA.POLAR>
0

>  <SCORE.INTRA.POLAR.0>
0

>  <SCORE.INTRA.REPUL>
0

>  <SCORE.INTRA.REPUL.0>
0

>  <SCORE.INTRA.SOLV>
-1.47269

>  <SCORE.INTRA.SOLV.lig_0>
-71.9159

>  <SCORE.INTRA.VDW>
0.895102

>  <SCORE.INTRA.VDW.0>
-3.53918

>  <SCORE.INTRA.norm>
-0.0843471

>  <SCORE.RESTR>
0

>  <SCORE.RESTR.CAVITY>
0

>  <SCORE.RESTR.norm>
0

>  <SCORE.SYSTEM>
0

>  <SCORE.SYSTEM.CONST>
0

>  <SCORE.SYSTEM.DIHEDRAL>
0

>  <SCORE.SYSTEM.SOLV>
0

>  <SCORE.SYSTEM.norm>
0

>  <SCORE.heavy>
34

>  <SCORE.norm>
-0.33306

>  <RMSD>
9.072

$$$$
ligand
 OpenBabel01301917533D
libRbt.so/2013.1/901 2013/11/27
 34 36  0  0  0  0  0  0  0  0999 V2000
   19.7672   28.3678   36.6246 C   0  0  2  0  0  0  0  0  0  0  0  0
   18.3629   28.2063   36.8477 O   0  0  0  0  0  0  0  0  0  0  0  0
   15.6016   25.4515   35.0620 C   0  0  2  0  0  0  0  0  0  0  0  0
   14.6730   24.8190   34.1154 N   0  0  0  0  0  0  0  0  0  0  0  0
   17.0739   23.3978   33.0403 C   0  0  2  0  0  0  0  0  0  0  0  0
   20.3736   29.1293   37.8628 C   0  0  2  0  0  0  0  0  0  0  0  0
   20.1362   28.3803   39.1073 N   0  0  0  0  0  0  0  0  0  0  0  0
   15.1015   26.9195   35.3146 C   0  0  0  0  0  0  0  0  0  0  0  0
   17.6387   21.9308   33.1959 C   0  0  2  0  0  0  0  0  0  0  0  0
   17.0794   21.3068   34.3389 O   0  0  0  0  0  0  0  0  0  0  0  0
   19.7577   30.5568   37.9712 C   0  0  1  0  0  0  0  0  0  0  0  0
   20.3092   31.2565   39.1021 O   0  0  0  0  0  0  0  0  0  0  0  0
   16.0828   27.5878   36.3405 C   0  0  2  0  0  0  0  0  0  0  0  0
   15.6707   28.9921   36.6241 N   0  0  0  0  0  0  0  0  0  0  0  0
   19.2056   22.0201   33.3342 C   0  0  1  0  0  0  0  0  0  0  0  0
   19.7947   20.6788   33.5203 N   0  0  0  0  0  0  0  0  0  0  0  0
   20.0315   31.3079   36.6472 C   0  0  2  0  0  0  0  0  0  0  0  0
   19.4838   32.6275   36.7304 O   0  0  0  0  0  0  0  0  0  0  0  0
   17.5412   27.5934   35.7906 C   0  0  2  0  0  0  0  0  0  0  0  0
   19.7912   22.6987   32.0556 C   0  0  1  0  0  0  0  0  0  0  0  0
   19.4776   21.8843   30.9305 O   0  0  0  0  0  0  0  0  0  0  0  0
   19.3896   30.4837   35.4495 C   0  0  2  0  0  0  0  0  0  0  0  0
   19.9610   29.1200   35.3871 O   0  0  0  0  0  0  0  0  0  0  0  0
   17.9778   26.1339   35.4893 C   0  0  2  0  0  0  0  0  0  0  0  0
   19.3012   26.1699   34.9590 O   0  0  0  0  0  0  0  0  0  0  0  0
   19.1411   24.1099   31.8902 C   0  0  0  0  0  0  0  0  0  0  0  0
   17.6622   24.0197   31.8377 O   0  0  0  0  0  0  0  0  0  0  0  0
   19.6168   31.1599   34.0669 C   0  0  2  0  0  0  0  0  0  0  0  0
   19.0290   32.4655   34.0780 O   0  0  0  0  0  0  0  0  0  0  0  0
   17.0612   25.4639   34.4361 C   0  0  1  0  0  0  0  0  0  0  0  0
   17.5290   24.1010   34.2405 O   0  0  0  0  0  0  0  0  0  0  0  0
   18.9851   30.3767   32.9372 C   0  0  0  0  0  0  0  0  0  0  0  0
   21.3124   22.8409   32.1220 C   0  0  0  0  0  0  0  0  0  0  0  0
   20.2758   20.5951   34.9211 C   0  0  0  0  0  0  0  0  0  0  0  0
  1  2  1  1  0  0  0
  1  6  1  0  0  0  0
  1 23  1  0  0  0  0
  3  4  1  6  0  0  0
  3  8  1  0  0  0  0
  3 30  1  0  0  0  0
  5  9  1  0  0  0  0
  5 27  1  0  0  0  0
  5 31  1  1  0  0  0
  6  7  1  1  0  0  0
  6 11  1  0  0  0  0
  8 13  1  0  0  0  0
  9 10  1  1  0  0  0
  9 15  1  0  0  0  0
 11 12  1  1  0  0  0
 11 17  1  0  0  0  0
 13 14  1  6  0  0  0
 13 19  1  0  0  0  0
 15 16  1  6  0  0  0
 15 20  1  0  0  0  0
 16 34  1  0  0  0  0
 17 18  1  1  0  0  0
 17 22  1  0  0  0  0
 19  2  1  1  0  0  0
 19 24  1  0  0  0  0
 20 21  1  6  0  0  0
 20 26  1  0  0  0  0
 20 33  1  0  0  0  0
 22 23  1  6  0  0  0
 22 28  1  0  0  0  0
 24 25  1  6  0  0  0
 24 30  1  0  0  0  0
 26 27  1  0  0  0  0
 28 29  1  1  0  0  0
 28 32  1  0  0  0  0
 30 31  1  1  0  0  0
M  END
>  <CHROM.1>
176.22145508,-179.20002823,-109.35373763,-59.67474597,81.48848623,-174.91602339
18.55701473,26.54272000,34.87898623,-1.49152672,-0.20689928,-2.72383909

>  <Name>
ligand

>  <RI>
0

>  <Rbt.Current_Directory>
/home/itssahil/PROJECTS/Mol_Feturizer/New_Systems/rnas/4p3s

>  <Rbt.Executable>
rbdock ($Id: //depot/dev/client3/rdock/2013.1/src/exe/rbdock.cxx#4 $)

>  <Rbt.Library>
libRbt.so (2013.1, Build901 2013/11/27)

>  <Rbt.Parameter_File>
/export/apps/rDock/src/rDock_2013.1_src/data/scripts/dock_solv.prm

>  <Rbt.Receptor>
prm/pocket_docking_8.prm

>  <SCORE>
-17.8027

>  <SCORE.INTER>
-11.3715

>  <SCORE.INTER.CONST>
1

>  <SCORE.INTER.POLAR>
0

>  <SCORE.INTER.ROT>
6

>  <SCORE.INTER.SOLV>
13.0388

>  <SCORE.INTER.VDW>
-19.5273

>  <SCORE.INTER.norm>
-0.334456

>  <SCORE.INTRA>
-6.43116

>  <SCORE.INTRA.DIHEDRAL>
-12.3827

>  <SCORE.INTRA.DIHEDRAL.0>
15.8194

>  <SCORE.INTRA.POLAR>
0

>  <SCORE.INTRA.POLAR.0>
0

>  <SCORE.INTRA.REPUL>
0

>  <SCORE.INTRA.REPUL.0>
0

>  <SCORE.INTRA.SOLV>
-1.00605

>  <SCORE.INTRA.SOLV.lig_0>
-71.9159

>  <SCORE.INTRA.VDW>
0.263202

>  <SCORE.INTRA.VDW.0>
-3.53918

>  <SCORE.INTRA.norm>
-0.189152

>  <SCORE.RESTR>
0

>  <SCORE.RESTR.CAVITY>
0

>  <SCORE.RESTR.norm>
0

>  <SCORE.SYSTEM>
0

>  <SCORE.SYSTEM.CONST>
0

>  <SCORE.SYSTEM.DIHEDRAL>
0

>  <SCORE.SYSTEM.SOLV>
0

>  <SCORE.SYSTEM.norm>
0

>  <SCORE.heavy>
34

>  <SCORE.norm>
-0.523608

>  <RMSD>
9.074

$$$$
ligand
 OpenBabel01301917533D
libRbt.so/2013.1/901 2013/11/27
 34 36  0  0  0  0  0  0  0  0999 V2000
   20.3407   28.4968   35.3656 C   0  0  2  0  0  0  0  0  0  0  0  0
   18.9881   28.4810   35.8330 O   0  0  0  0  0  0  0  0  0  0  0  0
   15.9276   25.5800   35.0458 C   0  0  2  0  0  0  0  0  0  0  0  0
   14.8324   24.8432   34.4005 N   0  0  0  0  0  0  0  0  0  0  0  0
   17.1731   23.2685   32.9581 C   0  0  2  0  0  0  0  0  0  0  0  0
   21.1935   29.3608   36.3689 C   0  0  2  0  0  0  0  0  0  0  0  0
   21.1288   28.8022   37.7290 N   0  0  0  0  0  0  0  0  0  0  0  0
   15.4892   27.0845   35.1617 C   0  0  0  0  0  0  0  0  0  0  0  0
   17.7429   21.8171   33.2118 C   0  0  2  0  0  0  0  0  0  0  0  0
   17.2128   21.2832   34.4129 O   0  0  0  0  0  0  0  0  0  0  0  0
   20.6903   30.8359   36.3714 C   0  0  1  0  0  0  0  0  0  0  0  0
   21.4672   31.6294   37.2875 O   0  0  0  0  0  0  0  0  0  0  0  0
   16.6514   27.8667   35.8684 C   0  0  2  0  0  0  0  0  0  0  0  0
   16.3053   29.3101   36.0073 N   0  0  0  0  0  0  0  0  0  0  0  0
   19.3126   21.9152   33.3039 C   0  0  1  0  0  0  0  0  0  0  0  0
   19.9074   20.5915   33.5776 N   0  0  0  0  0  0  0  0  0  0  0  0
   20.7773   31.3833   34.9275 C   0  0  2  0  0  0  0  0  0  0  0  0
   20.3305   32.7427   34.9097 O   0  0  0  0  0  0  0  0  0  0  0  0
   17.9767   27.7437   35.0572 C   0  0  2  0  0  0  0  0  0  0  0  0
   19.8656   22.4931   31.9628 C   0  0  1  0  0  0  0  0  0  0  0  0
   19.5249   21.5951   30.9116 O   0  0  0  0  0  0  0  0  0  0  0  0
   19.8927   30.4653   33.9784 C   0  0  2  0  0  0  0  0  0  0  0  0
   20.3638   29.0630   34.0190 O   0  0  0  0  0  0  0  0  0  0  0  0
   18.3433   26.2424   34.9048 C   0  0  2  0  0  0  0  0  0  0  0  0
   19.5399   26.1566   34.1338 O   0  0  0  0  0  0  0  0  0  0  0  0
   19.2104   23.8881   31.7058 C   0  0  0  0  0  0  0  0  0  0  0  0
   17.7307   23.7956   31.6972 O   0  0  0  0  0  0  0  0  0  0  0  0
   19.9195   30.9349   32.4954 C   0  0  2  0  0  0  0  0  0  0  0  0
   19.0461   30.1049   31.7219 O   0  0  0  0  0  0  0  0  0  0  0  0
   17.2393   25.4523   34.1596 C   0  0  1  0  0  0  0  0  0  0  0  0
   17.6572   24.0612   34.0891 O   0  0  0  0  0  0  0  0  0  0  0  0
   21.3034   30.8413   31.8914 C   0  0  0  0  0  0  0  0  0  0  0  0
   21.3880   22.6384   31.9803 C   0  0  0  0  0  0  0  0  0  0  0  0
   20.2774   20.5590   35.0139 C   0  0  0  0  0  0  0  0  0  0  0  0
  1  2  1  1  0  0  0
  1  6  1  0  0  0  0
  1 23  1  0  0  0  0
  3  4  1  6  0  0  0
  3  8  1  0  0  0  0
  3 30  1  0  0  0  0
  5  9  1  0  0  0  0
  5 27  1  0  0  0  0
  5 31  1  1  0  0  0
  6  7  1  1  0  0  0
  6 11  1  0  0  0  0
  8 13  1  0  0  0  0
  9 10  1  1  0  0  0
  9 15  1  0  0  0  0
 11 12  1  1  0  0  0
 11 17  1  0  0  0  0
 13 14  1  6  0  0  0
 13 19  1  0  0  0  0
 15 16  1  6  0  0  0
 15 20  1  0  0  0  0
 16 34  1  0  0  0  0
 17 18  1  1  0  0  0
 17 22  1  0  0  0  0
 19  2  1  1  0  0  0
 19 24  1  0  0  0  0
 20 21  1  6  0  0  0
 20 26  1  0  0  0  0
 20 33  1  0  0  0  0
 22 23  1  6  0  0  0
 22 28  1  0  0  0  0
 24 25  1  6  0  0  0
 24 30  1  0  0  0  0
 26 27  1  0  0  0  0
 28 29  1  6  0  0  0
 28 32  1  0  0  0  0
 30 31  1  1  0  0  0
M  END
>  <CHROM.1>
179.45738842,177.18966055,-102.76195025,-176.91558051,93.04503784,-177.50413699
18.98619698,26.50927159,34.16854212,-1.37266153,-0.47846217,-2.81866329

>  <Name>
ligand

>  <RI>
0

>  <Rbt.Current_Directory>
/home/itssahil/PROJECTS/Mol_Feturizer/New_Systems/rnas/4p3s

>  <Rbt.Executable>
rbdock ($Id: //depot/dev/client3/rdock/2013.1/src/exe/rbdock.cxx#4 $)

>  <Rbt.Library>
libRbt.so (2013.1, Build901 2013/11/27)

>  <Rbt.Parameter_File>
/export/apps/rDock/src/rDock_2013.1_src/data/scripts/dock_solv.prm

>  <Rbt.Receptor>
prm/pocket_docking_7.prm

>  <SCORE>
-17.7466

>  <SCORE.INTER>
-12.4902

>  <SCORE.INTER.CONST>
1

>  <SCORE.INTER.POLAR>
0

>  <SCORE.INTER.ROT>
6

>  <SCORE.INTER.SOLV>
14.7832

>  <SCORE.INTER.VDW>
-20.8545

>  <SCORE.INTER.norm>
-0.367359

>  <SCORE.INTRA>
-5.25636

>  <SCORE.INTRA.DIHEDRAL>
-10.5265

>  <SCORE.INTRA.DIHEDRAL.0>
15.8194

>  <SCORE.INTRA.POLAR>
0

>  <SCORE.INTRA.POLAR.0>
0

>  <SCORE.INTRA.REPUL>
0

>  <SCORE.INTRA.REPUL.0>
0

>  <SCORE.INTRA.SOLV>
-1.49304

>  <SCORE.INTRA.SOLV.lig_0>
-71.9159

>  <SCORE.INTRA.VDW>
0.753413

>  <SCORE.INTRA.VDW.0>
-3.53918

>  <SCORE.INTRA.norm>
-0.154599

>  <SCORE.RESTR>
0

>  <SCORE.RESTR.CAVITY>
0

>  <SCORE.RESTR.norm>
0

>  <SCORE.SYSTEM>
0

>  <SCORE.SYSTEM.CONST>
0

>  <SCORE.SYSTEM.DIHEDRAL>
0

>  <SCORE.SYSTEM.SOLV>
0

>  <SCORE.SYSTEM.norm>
0

>  <SCORE.heavy>
34

>  <SCORE.norm>
-0.521957

>  <RMSD>
9.079

$$$$
ligand
 OpenBabel01301917533D
libRbt.so/2013.1/901 2013/11/27
 34 36  0  0  0  0  0  0  0  0999 V2000
   22.1801   27.4654   37.0734 C   0  0  2  0  0  0  0  0  0  0  0  0
   20.8569   27.6234   37.5955 O   0  0  0  0  0  0  0  0  0  0  0  0
   16.8988   27.0078   36.0605 C   0  0  2  0  0  0  0  0  0  0  0  0
   15.6818   27.1231   35.2455 N   0  0  0  0  0  0  0  0  0  0  0  0
   17.2216   24.9594   33.3497 C   0  0  2  0  0  0  0  0  0  0  0  0
   23.1410   27.1251   38.2740 C   0  0  2  0  0  0  0  0  0  0  0  0
   22.7108   25.8951   38.9582 N   0  0  0  0  0  0  0  0  0  0  0  0
   17.2559   28.4424   36.5929 C   0  0  0  0  0  0  0  0  0  0  0  0
   17.1596   23.4007   33.1011 C   0  0  2  0  0  0  0  0  0  0  0  0
   16.2652   22.7915   34.0162 O   0  0  0  0  0  0  0  0  0  0  0  0
   23.1831   28.3122   39.2829 C   0  0  1  0  0  0  0  0  0  0  0  0
   24.0603   28.0053   40.3823 O   0  0  0  0  0  0  0  0  0  0  0  0
   18.5447   28.3150   37.4790 C   0  0  2  0  0  0  0  0  0  0  0  0
   18.9473   29.6462   38.0158 N   0  0  0  0  0  0  0  0  0  0  0  0
   18.6110   22.8161   33.2848 C   0  0  1  0  0  0  0  0  0  0  0  0
   18.6154   21.3508   33.1006 N   0  0  0  0  0  0  0  0  0  0  0  0
   23.6410   29.5803   38.5251 C   0  0  2  0  0  0  0  0  0  0  0  0
   23.6982   30.6814   39.4375 O   0  0  0  0  0  0  0  0  0  0  0  0
   19.7292   27.7267   36.6543 C   0  0  2  0  0  0  0  0  0  0  0  0
   19.5674   23.4964   32.2549 C   0  0  1  0  0  0  0  0  0  0  0  0
   19.1116   23.1834   30.9428 O   0  0  0  0  0  0  0  0  0  0  0  0
   22.6249   29.8599   37.3354 C   0  0  2  0  0  0  0  0  0  0  0  0
   22.5725   28.7064   36.4097 O   0  0  0  0  0  0  0  0  0  0  0  0
   19.3171   26.3406   36.0883 C   0  0  2  0  0  0  0  0  0  0  0  0
   20.4045   25.8395   35.3135 O   0  0  0  0  0  0  0  0  0  0  0  0
   19.5313   25.0426   32.4772 C   0  0  0  0  0  0  0  0  0  0  0  0
   18.1492   25.5698   32.3772 O   0  0  0  0  0  0  0  0  0  0  0  0
   23.0051   31.1202   36.5061 C   0  0  2  0  0  0  0  0  0  0  0  0
   23.2006   32.2271   37.3930 O   0  0  0  0  0  0  0  0  0  0  0  0
   18.0797   26.4408   35.1626 C   0  0  1  0  0  0  0  0  0  0  0  0
   17.7551   25.0990   34.7054 O   0  0  0  0  0  0  0  0  0  0  0  0
   21.9239   31.5023   35.5193 C   0  0  0  0  0  0  0  0  0  0  0  0
   21.0064   22.9946   32.3834 C   0  0  0  0  0  0  0  0  0  0  0  0
   19.0200   20.7419   34.3915 C   0  0  0  0  0  0  0  0  0  0  0  0
  1  2  1  1  0  0  0
  1  6  1  0  0  0  0
  1 23  1  0  0  0  0
  3  4  1  6  0  0  0
  3  8  1  0  0  0  0
  3 30  1  0  0  0  0
  5  9  1  0  0  0  0
  5 27  1  0  0  0  0
  5 31  1  1  0  0  0
  6  7  1  1  0  0  0
  6 11  1  0  0  0  0
  8 13  1  0  0  0  0
  9 10  1  1  0  0  0
  9 15  1  0  0  0  0
 11 12  1  1  0  0  0
 11 17  1  0  0  0  0
 13 14  1  6  0  0  0
 13 19  1  0  0  0  0
 15 16  1  6  0  0  0
 15 20  1  0  0  0  0
 16 34  1  0  0  0  0
 17 18  1  1  0  0  0
 17 22  1  0  0  0  0
 19  2  1  1  0  0  0
 19 24  1  0  0  0  0
 20 21  1  6  0  0  0
 20 26  1  0  0  0  0
 20 33  1  0  0  0  0
 22 23  1  6  0  0  0
 22 28  1  0  0  0  0
 24 25  1  6  0  0  0
 24 30  1  0  0  0  0
 26 27  1  0  0  0  0
 28 29  1  1  0  0  0
 28 32  1  0  0  0  0
 30 31  1  1  0  0  0
M  END
>  <CHROM.1>
-170.01191454,-163.10699603,-116.53696394,-51.53617965,98.93086017,172.76854463
20.13038441,26.66088123,35.74801774,-1.01356409,0.35941220,-2.68404396

>  <Name>
ligand

>  <RI>
0

>  <Rbt.Current_Directory>
/home/itssahil/PROJECTS/Mol_Feturizer/New_Systems/rnas/4p3s

>  <Rbt.Executable>
rbdock ($Id: //depot/dev/client3/rdock/2013.1/src/exe/rbdock.cxx#4 $)

>  <Rbt.Library>
libRbt.so (2013.1, Build901 2013/11/27)

>  <Rbt.Parameter_File>
/export/apps/rDock/src/rDock_2013.1_src/data/scripts/dock_solv.prm

>  <Rbt.Receptor>
prm/blind_docking_80.prm

>  <SCORE>
-7.25385

>  <SCORE.INTER>
-6.91982

>  <SCORE.INTER.CONST>
1

>  <SCORE.INTER.POLAR>
0

>  <SCORE.INTER.ROT>
6

>  <SCORE.INTER.SOLV>
16.1292

>  <SCORE.INTER.VDW>
-17.5896

>  <SCORE.INTER.norm>
-0.203524

>  <SCORE.INTRA>
-4.05005

>  <SCORE.INTRA.DIHEDRAL>
-7.06409

>  <SCORE.INTRA.DIHEDRAL.0>
15.8194

>  <SCORE.INTRA.POLAR>
0

>  <SCORE.INTRA.POLAR.0>
0

>  <SCORE.INTRA.REPUL>
0

>  <SCORE.INTRA.REPUL.0>
0

>  <SCORE.INTRA.SOLV>
-0.428921

>  <SCORE.INTRA.SOLV.lig_0>
-71.9159

>  <SCORE.INTRA.VDW>
-0.303543

>  <SCORE.INTRA.VDW.0>
-3.53918

>  <SCORE.INTRA.norm>
-0.119119

>  <SCORE.RESTR>
3.71603

>  <SCORE.RESTR.CAVITY>
3.71603

>  <SCORE.RESTR.norm>
0.109295

>  <SCORE.SYSTEM>
0

>  <SCORE.SYSTEM.CONST>
0

>  <SCORE.SYSTEM.DIHEDRAL>
0

>  <SCORE.SYSTEM.SOLV>
0

>  <SCORE.SYSTEM.norm>
0

>  <SCORE.heavy>
34

>  <SCORE.norm>
-0.213348

>  <RMSD>
9.088

$$$$
ligand
 OpenBabel01301917533D
libRbt.so/2013.1/901 2013/11/27
 34 36  0  0  0  0  0  0  0  0999 V2000
   20.1584   28.3903   36.3485 C   0  0  2  0  0  0  0  0  0  0  0  0
   18.7622   28.3111   36.6525 O   0  0  0  0  0  0  0  0  0  0  0  0
   15.7976   25.5951   35.1567 C   0  0  2  0  0  0  0  0  0  0  0  0
   14.7908   24.9605   34.2953 N   0  0  0  0  0  0  0  0  0  0  0  0
   17.1091   23.4154   33.1179 C   0  0  2  0  0  0  0  0  0  0  0  0
   20.8844   29.0786   37.5651 C   0  0  2  0  0  0  0  0  0  0  0  0
   20.6732   28.3126   38.8039 N   0  0  0  0  0  0  0  0  0  0  0  0
   15.3687   27.0914   35.3719 C   0  0  0  0  0  0  0  0  0  0  0  0
   17.6498   21.9408   33.2866 C   0  0  2  0  0  0  0  0  0  0  0  0
   17.1192   21.3535   34.4622 O   0  0  0  0  0  0  0  0  0  0  0  0
   20.3687   30.5384   37.7438 C   0  0  1  0  0  0  0  0  0  0  0  0
   21.0296   31.1713   38.8551 O   0  0  0  0  0  0  0  0  0  0  0  0
   16.4343   27.7630   36.3077 C   0  0  2  0  0  0  0  0  0  0  0  0
   16.0927   29.1935   36.5516 N   0  0  0  0  0  0  0  0  0  0  0  0
   19.2221   22.0008   33.3679 C   0  0  1  0  0  0  0  0  0  0  0  0
   19.7907   20.6520   33.5633 N   0  0  0  0  0  0  0  0  0  0  0  0
   20.6115   31.3064   36.4234 C   0  0  2  0  0  0  0  0  0  0  0  0
   20.1555   32.6549   36.5703 O   0  0  0  0  0  0  0  0  0  0  0  0
   17.8561   27.6870   35.6738 C   0  0  2  0  0  0  0  0  0  0  0  0
   19.7753   22.6391   32.0546 C   0  0  1  0  0  0  0  0  0  0  0  0
   19.4058   21.8071   30.9597 O   0  0  0  0  0  0  0  0  0  0  0  0
   19.8486   30.5566   35.2479 C   0  0  2  0  0  0  0  0  0  0  0  0
   20.3267   29.1620   35.1194 O   0  0  0  0  0  0  0  0  0  0  0  0
   18.2190   26.1998   35.4132 C   0  0  2  0  0  0  0  0  0  0  0  0
   19.5085   26.1603   34.8054 O   0  0  0  0  0  0  0  0  0  0  0  0
   19.1478   24.0595   31.8803 C   0  0  0  0  0  0  0  0  0  0  0  0
   17.6665   23.9987   31.8818 O   0  0  0  0  0  0  0  0  0  0  0  0
   20.0368   31.2544   33.8702 C   0  0  2  0  0  0  0  0  0  0  0  0
   19.5706   32.6054   33.9581 O   0  0  0  0  0  0  0  0  0  0  0  0
   17.2163   25.5227   34.4465 C   0  0  1  0  0  0  0  0  0  0  0  0
   17.6203   24.1351   34.2853 O   0  0  0  0  0  0  0  0  0  0  0  0
   19.2589   30.5662   32.7703 C   0  0  0  0  0  0  0  0  0  0  0  0
   21.3004   22.7513   32.0644 C   0  0  0  0  0  0  0  0  0  0  0  0
   20.2465   20.5616   34.9721 C   0  0  0  0  0  0  0  0  0  0  0  0
  1  2  1  1  0  0  0
  1  6  1  0  0  0  0
  1 23  1  0  0  0  0
  3  4  1  6  0  0  0
  3  8  1  0  0  0  0
  3 30  1  0  0  0  0
  5  9  1  0  0  0  0
  5 27  1  0  0  0  0
  5 31  1  1  0  0  0
  6  7  1  1  0  0  0
  6 11  1  0  0  0  0
  8 13  1  0  0  0  0
  9 10  1  1  0  0  0
  9 15  1  0  0  0  0
 11 12  1  1  0  0  0
 11 17  1  0  0  0  0
 13 14  1  6  0  0  0
 13 19  1  0  0  0  0
 15 16  1  6  0  0  0
 15 20  1  0  0  0  0
 16 34  1  0  0  0  0
 17 18  1  1  0  0  0
 17 22  1  0  0  0  0
 19  2  1  1  0  0  0
 19 24  1  0  0  0  0
 20 21  1  6  0  0  0
 20 26  1  0  0  0  0
 20 33  1  0  0  0  0
 22 23  1  6  0  0  0
 22 28  1  0  0  0  0
 24 25  1  6  0  0  0
 24 30  1  0  0  0  0
 26 27  1  0  0  0  0
 28 29  1  1  0  0  0
 28 32  1  0  0  0  0
 30 31  1  1  0  0  0
M  END
>  <CHROM.1>
-179.24047902,179.95715654,-106.05342420,-58.04310537,83.79912545,-176.57330362
18.81677999,26.57861205,34.80451263,-1.43052812,-0.17910307,-2.75088368

>  <Name>
ligand

>  <RI>
0

>  <Rbt.Current_Directory>
/home/itssahil/PROJECTS/Mol_Feturizer/New_Systems/rnas/4p3s

>  <Rbt.Executable>
rbdock ($Id: //depot/dev/client3/rdock/2013.1/src/exe/rbdock.cxx#4 $)

>  <Rbt.Library>
libRbt.so (2013.1, Build901 2013/11/27)

>  <Rbt.Parameter_File>
/export/apps/rDock/src/rDock_2013.1_src/data/scripts/dock_solv.prm

>  <Rbt.Receptor>
prm/pocket_docking_7.prm

>  <SCORE>
-17.8035

>  <SCORE.INTER>
-11.4245

>  <SCORE.INTER.CONST>
1

>  <SCORE.INTER.POLAR>
0

>  <SCORE.INTER.ROT>
6

>  <SCORE.INTER.SOLV>
12.5233

>  <SCORE.INTER.VDW>
-19.3908

>  <SCORE.INTER.norm>
-0.336015

>  <SCORE.INTRA>
-6.37903

>  <SCORE.INTRA.DIHEDRAL>
-12.1716

>  <SCORE.INTRA.DIHEDRAL.0>
15.8194

>  <SCORE.INTRA.POLAR>
0

>  <SCORE.INTRA.POLAR.0>
0

>  <SCORE.INTRA.REPUL>
0

>  <SCORE.INTRA.REPUL.0>
0

>  <SCORE.INTRA.SOLV>
-1.11268

>  <SCORE.INTRA.SOLV.lig_0>
-71.9159

>  <SCORE.INTRA.VDW>
0.263119

>  <SCORE.INTRA.VDW.0>
-3.53918

>  <SCORE.INTRA.norm>
-0.187619

>  <SCORE.RESTR>
0

>  <SCORE.RESTR.CAVITY>
0

>  <SCORE.RESTR.norm>
0

>  <SCORE.SYSTEM>
0

>  <SCORE.SYSTEM.CONST>
0

>  <SCORE.SYSTEM.DIHEDRAL>
0

>  <SCORE.SYSTEM.SOLV>
0

>  <SCORE.SYSTEM.norm>
0

>  <SCORE.heavy>
34

>  <SCORE.norm>
-0.523634

>  <RMSD>
9.088

$$$$
ligand
 OpenBabel01301917533D
libRbt.so/2013.1/901 2013/11/27
 34 36  0  0  0  0  0  0  0  0999 V2000
   20.9018   28.7951   35.7621 C   0  0  2  0  0  0  0  0  0  0  0  0
   19.6848   29.1179   36.4427 O   0  0  0  0  0  0  0  0  0  0  0  0
   15.8626   27.2448   35.9093 C   0  0  2  0  0  0  0  0  0  0  0  0
   14.5207   26.9256   35.4035 N   0  0  0  0  0  0  0  0  0  0  0  0
   17.3531   25.1621   33.0922 C   0  0  2  0  0  0  0  0  0  0  0  0
   22.1047   29.2502   36.6713 C   0  0  2  0  0  0  0  0  0  0  0  0
   22.0569   28.5786   37.9800 N   0  0  0  0  0  0  0  0  0  0  0  0
   15.8770   28.7665   36.3008 C   0  0  0  0  0  0  0  0  0  0  0  0
   16.6773   23.7564   32.8419 C   0  0  2  0  0  0  0  0  0  0  0  0
   15.2656   23.8757   32.8773 O   0  0  0  0  0  0  0  0  0  0  0  0
   22.0804   30.7968   36.8619 C   0  0  1  0  0  0  0  0  0  0  0  0
   23.1784   31.2171   37.6926 O   0  0  0  0  0  0  0  0  0  0  0  0
   17.3048   29.1018   36.8589 C   0  0  2  0  0  0  0  0  0  0  0  0
   17.3935   30.5385   37.2468 N   0  0  0  0  0  0  0  0  0  0  0  0
   17.1702   22.7678   33.9653 C   0  0  1  0  0  0  0  0  0  0  0  0
   16.5439   21.4395   33.8092 N   0  0  0  0  0  0  0  0  0  0  0  0
   22.1344   31.4611   35.4663 C   0  0  2  0  0  0  0  0  0  0  0  0
   22.1253   32.8840   35.6194 O   0  0  0  0  0  0  0  0  0  0  0  0
   18.4018   28.8004   35.7936 C   0  0  2  0  0  0  0  0  0  0  0  0
   18.7253   22.6479   33.8909 C   0  0  1  0  0  0  0  0  0  0  0  0
   19.0744   22.1069   32.6209 O   0  0  0  0  0  0  0  0  0  0  0  0
   20.8925   30.9577   34.6118 C   0  0  2  0  0  0  0  0  0  0  0  0
   20.9145   29.4845   34.4740 O   0  0  0  0  0  0  0  0  0  0  0  0
   18.3146   27.3058   35.3811 C   0  0  2  0  0  0  0  0  0  0  0  0
   19.3060   27.0646   34.3848 O   0  0  0  0  0  0  0  0  0  0  0  0
   19.3498   24.0708   34.0542 C   0  0  0  0  0  0  0  0  0  0  0  0
   18.8206   25.0120   33.0382 O   0  0  0  0  0  0  0  0  0  0  0  0
   20.8608   31.5702   33.1820 C   0  0  2  0  0  0  0  0  0  0  0  0
   20.8368   32.9985   33.2811 O   0  0  0  0  0  0  0  0  0  0  0  0
   16.9340   26.9554   34.7731 C   0  0  1  0  0  0  0  0  0  0  0  0
   16.9383   25.5389   34.4442 O   0  0  0  0  0  0  0  0  0  0  0  0
   19.6380   31.1390   32.4027 C   0  0  0  0  0  0  0  0  0  0  0  0
   19.2853   21.7168   34.9672 C   0  0  0  0  0  0  0  0  0  0  0  0
   15.3712   21.3917   34.7165 C   0  0  0  0  0  0  0  0  0  0  0  0
  1  2  1  1  0  0  0
  1  6  1  0  0  0  0
  1 23  1  0  0  0  0
  3  4  1  6  0  0  0
  3  8  1  0  0  0  0
  3 30  1  0  0  0  0
  5  9  1  0  0  0  0
  5 27  1  0  0  0  0
  5 31  1  1  0  0  0
  6  7  1  1  0  0  0
  6 11  1  0  0  0  0
  8 13  1  0  0  0  0
  9 10  1  1  0  0  0
  9 15  1  0  0  0  0
 11 12  1  1  0  0  0
 11 17  1  0  0  0  0
 13 14  1  6  0  0  0
 13 19  1  0  0  0  0
 15 16  1  6  0  0  0
 15 20  1  0  0  0  0
 16 34  1  0  0  0  0
 17 18  1  1  0  0  0
 17 22  1  0  0  0  0
 19  2  1  1  0  0  0
 19 24  1  0  0  0  0
 20 21  1  6  0  0  0
 20 26  1  0  0  0  0
 20 33  1  0  0  0  0
 22 23  1  6  0  0  0
 22 28  1  0  0  0  0
 24 25  1  6  0  0  0
 24 30  1  0  0  0  0
 26 27  1  0  0  0  0
 28 29  1  1  0  0  0
 28 32  1  0  0  0  0
 30 31  1  1  0  0  0
M  END
>  <CHROM.1>
179.56268985,172.86124321,-96.59038309,-57.59173578,152.75688505,-156.00780370
18.89975910,27.36978660,34.88269579,-1.09742177,-0.02447265,-2.91697532

>  <Name>
ligand

>  <RI>
0

>  <Rbt.Current_Directory>
/home/itssahil/PROJECTS/Mol_Feturizer/New_Systems/rnas/4p3s

>  <Rbt.Executable>
rbdock ($Id: //depot/dev/client3/rdock/2013.1/src/exe/rbdock.cxx#4 $)

>  <Rbt.Library>
libRbt.so (2013.1, Build901 2013/11/27)

>  <Rbt.Parameter_File>
/export/apps/rDock/src/rDock_2013.1_src/data/scripts/dock_solv.prm

>  <Rbt.Receptor>
prm/pocket_docking_4.prm

>  <SCORE>
-12.6665

>  <SCORE.INTER>
-8.55312

>  <SCORE.INTER.CONST>
1

>  <SCORE.INTER.POLAR>
0

>  <SCORE.INTER.ROT>
6

>  <SCORE.INTER.SOLV>
15.9485

>  <SCORE.INTER.VDW>
-18.6182

>  <SCORE.INTER.norm>
-0.251562

>  <SCORE.INTRA>
-4.11342

>  <SCORE.INTRA.DIHEDRAL>
-9.13135

>  <SCORE.INTRA.DIHEDRAL.0>
15.8194

>  <SCORE.INTRA.POLAR>
0

>  <SCORE.INTRA.POLAR.0>
0

>  <SCORE.INTRA.REPUL>
0

>  <SCORE.INTRA.REPUL.0>
0

>  <SCORE.INTRA.SOLV>
-1.70258

>  <SCORE.INTRA.SOLV.lig_0>
-71.9159

>  <SCORE.INTRA.VDW>
1.30354

>  <SCORE.INTRA.VDW.0>
-3.53918

>  <SCORE.INTRA.norm>
-0.120983

>  <SCORE.RESTR>
0

>  <SCORE.RESTR.CAVITY>
0

>  <SCORE.RESTR.norm>
0

>  <SCORE.SYSTEM>
0

>  <SCORE.SYSTEM.CONST>
0

>  <SCORE.SYSTEM.DIHEDRAL>
0

>  <SCORE.SYSTEM.SOLV>
0

>  <SCORE.SYSTEM.norm>
0

>  <SCORE.heavy>
34

>  <SCORE.norm>
-0.372545

>  <RMSD>
9.096

$$$$
ligand
 OpenBabel01301917533D
libRbt.so/2013.1/901 2013/11/27
 34 36  0  0  0  0  0  0  0  0999 V2000
   20.1037   28.5268   36.3164 C   0  0  2  0  0  0  0  0  0  0  0  0
   18.7316   28.3117   36.6617 O   0  0  0  0  0  0  0  0  0  0  0  0
   15.7986   25.5870   35.1203 C   0  0  2  0  0  0  0  0  0  0  0  0
   14.8038   24.9518   34.2454 N   0  0  0  0  0  0  0  0  0  0  0  0
   17.1356   23.4272   33.0836 C   0  0  2  0  0  0  0  0  0  0  0  0
   20.8193   29.1918   37.5519 C   0  0  2  0  0  0  0  0  0  0  0  0
   20.7201   28.3313   38.7417 N   0  0  0  0  0  0  0  0  0  0  0  0
   15.3580   27.0790   35.3418 C   0  0  0  0  0  0  0  0  0  0  0  0
   17.6669   21.9499   33.2585 C   0  0  2  0  0  0  0  0  0  0  0  0
   17.1214   21.3659   34.4289 O   0  0  0  0  0  0  0  0  0  0  0  0
   20.1948   30.5887   37.8479 C   0  0  1  0  0  0  0  0  0  0  0  0
   20.8460   31.2002   38.9768 O   0  0  0  0  0  0  0  0  0  0  0  0
   16.4106   27.7510   36.2919 C   0  0  2  0  0  0  0  0  0  0  0  0
   16.0575   29.1775   36.5424 N   0  0  0  0  0  0  0  0  0  0  0  0
   19.2386   22.0018   33.3557 C   0  0  1  0  0  0  0  0  0  0  0  0
   19.7983   20.6501   33.5575 N   0  0  0  0  0  0  0  0  0  0  0  0
   20.3221   31.4593   36.5758 C   0  0  2  0  0  0  0  0  0  0  0  0
   19.7647   32.7525   36.8305 O   0  0  0  0  0  0  0  0  0  0  0  0
   17.8386   27.6885   35.6705 C   0  0  2  0  0  0  0  0  0  0  0  0
   19.8084   22.6366   32.0478 C   0  0  1  0  0  0  0  0  0  0  0  0
   19.4458   21.8059   30.9496 O   0  0  0  0  0  0  0  0  0  0  0  0
   19.5762   30.7273   35.3784 C   0  0  2  0  0  0  0  0  0  0  0  0
   20.1601   29.3888   35.1381 O   0  0  0  0  0  0  0  0  0  0  0  0
   18.2136   26.2055   35.4032 C   0  0  2  0  0  0  0  0  0  0  0  0
   19.5088   26.1785   34.8070 O   0  0  0  0  0  0  0  0  0  0  0  0
   19.1901   24.0601   31.8665 C   0  0  0  0  0  0  0  0  0  0  0  0
   17.7085   24.0069   31.8529 O   0  0  0  0  0  0  0  0  0  0  0  0
   19.6526   31.5272   34.0462 C   0  0  2  0  0  0  0  0  0  0  0  0
   19.0455   32.8107   34.2313 O   0  0  0  0  0  0  0  0  0  0  0  0
   17.2242   25.5286   34.4227 C   0  0  1  0  0  0  0  0  0  0  0  0
   17.6386   24.1448   34.2558 O   0  0  0  0  0  0  0  0  0  0  0  0
   18.9257   30.8290   32.9181 C   0  0  0  0  0  0  0  0  0  0  0  0
   21.3339   22.7409   32.0730 C   0  0  0  0  0  0  0  0  0  0  0  0
   20.2350   20.5566   34.9722 C   0  0  0  0  0  0  0  0  0  0  0  0
  1  2  1  1  0  0  0
  1  6  1  0  0  0  0
  1 23  1  0  0  0  0
  3  4  1  6  0  0  0
  3  8  1  0  0  0  0
  3 30  1  0  0  0  0
  5  9  1  0  0  0  0
  5 27  1  0  0  0  0
  5 31  1  1  0  0  0
  6  7  1  1  0  0  0
  6 11  1  0  0  0  0
  8 13  1  0  0  0  0
  9 10  1  1  0  0  0
  9 15  1  0  0  0  0
 11 12  1  1  0  0  0
 11 17  1  0  0  0  0
 13 14  1  6  0  0  0
 13 19  1  0  0  0  0
 15 16  1  6  0  0  0
 15 20  1  0  0  0  0
 16 34  1  0  0  0  0
 17 18  1  1  0  0  0
 17 22  1  0  0  0  0
 19  2  1  1  0  0  0
 19 24  1  0  0  0  0
 20 21  1  6  0  0  0
 20 26  1  0  0  0  0
 20 33  1  0  0  0  0
 22 23  1  6  0  0  0
 22 28  1  0  0  0  0
 24 25  1  6  0  0  0
 24 30  1  0  0  0  0
 26 27  1  0  0  0  0
 28 29  1  1  0  0  0
 28 32  1  0  0  0  0
 30 31  1  1  0  0  0
M  END
>  <CHROM.1>
-179.66747696,-173.69634949,-105.86171609,-59.80383566,83.40063168,-175.68208558
18.73747407,26.63027865,34.83307169,-1.46678265,0.05550090,-2.77590150

>  <Name>
ligand

>  <RI>
0

>  <Rbt.Current_Directory>
/home/itssahil/PROJECTS/Mol_Feturizer/New_Systems/rnas/4p3s

>  <Rbt.Executable>
rbdock ($Id: //depot/dev/client3/rdock/2013.1/src/exe/rbdock.cxx#4 $)

>  <Rbt.Library>
libRbt.so (2013.1, Build901 2013/11/27)

>  <Rbt.Parameter_File>
/export/apps/rDock/src/rDock_2013.1_src/data/scripts/dock_solv.prm

>  <Rbt.Receptor>
prm/pocket_docking_5.prm

>  <SCORE>
-17.4793

>  <SCORE.INTER>
-11.0215

>  <SCORE.INTER.CONST>
1

>  <SCORE.INTER.POLAR>
0

>  <SCORE.INTER.ROT>
6

>  <SCORE.INTER.SOLV>
12.1606

>  <SCORE.INTER.VDW>
-19.0012

>  <SCORE.INTER.norm>
-0.324163

>  <SCORE.INTRA>
-6.45773

>  <SCORE.INTRA.DIHEDRAL>
-12.0369

>  <SCORE.INTRA.DIHEDRAL.0>
15.8194

>  <SCORE.INTRA.POLAR>
0

>  <SCORE.INTRA.POLAR.0>
0

>  <SCORE.INTRA.REPUL>
0

>  <SCORE.INTRA.REPUL.0>
0

>  <SCORE.INTRA.SOLV>
-0.97803

>  <SCORE.INTRA.SOLV.lig_0>
-71.9159

>  <SCORE.INTRA.VDW>
0.0497302

>  <SCORE.INTRA.VDW.0>
-3.53918

>  <SCORE.INTRA.norm>
-0.189933

>  <SCORE.RESTR>
0

>  <SCORE.RESTR.CAVITY>
0

>  <SCORE.RESTR.norm>
0

>  <SCORE.SYSTEM>
0

>  <SCORE.SYSTEM.CONST>
0

>  <SCORE.SYSTEM.DIHEDRAL>
0

>  <SCORE.SYSTEM.SOLV>
0

>  <SCORE.SYSTEM.norm>
0

>  <SCORE.heavy>
34

>  <SCORE.norm>
-0.514096

>  <RMSD>
9.103

$$$$
ligand
 OpenBabel01301917533D
libRbt.so/2013.1/901 2013/11/27
 34 36  0  0  0  0  0  0  0  0999 V2000
   20.2811   28.4422   35.3600 C   0  0  2  0  0  0  0  0  0  0  0  0
   18.9157   28.3951   35.7864 O   0  0  0  0  0  0  0  0  0  0  0  0
   15.9581   25.4068   34.9351 C   0  0  2  0  0  0  0  0  0  0  0  0
   14.9027   24.6357   34.2642 N   0  0  0  0  0  0  0  0  0  0  0  0
   17.2999   23.1028   32.9237 C   0  0  2  0  0  0  0  0  0  0  0  0
   21.0870   29.3094   36.3988 C   0  0  2  0  0  0  0  0  0  0  0  0
   20.9926   28.7327   37.7495 N   0  0  0  0  0  0  0  0  0  0  0  0
   15.4768   26.9000   35.0241 C   0  0  0  0  0  0  0  0  0  0  0  0
   17.8923   21.6675   33.2141 C   0  0  2  0  0  0  0  0  0  0  0  0
   17.3565   21.1485   34.4191 O   0  0  0  0  0  0  0  0  0  0  0  0
   20.5558   30.7746   36.4038 C   0  0  1  0  0  0  0  0  0  0  0  0
   21.2897   31.5710   37.3522 O   0  0  0  0  0  0  0  0  0  0  0  0
   16.5962   27.7189   35.7580 C   0  0  2  0  0  0  0  0  0  0  0  0
   16.2079   29.1536   35.8734 N   0  0  0  0  0  0  0  0  0  0  0  0
   19.4587   21.7960   33.3235 C   0  0  1  0  0  0  0  0  0  0  0  0
   20.0736   20.4891   33.6317 N   0  0  0  0  0  0  0  0  0  0  0  0
   20.6752   31.3417   34.9698 C   0  0  2  0  0  0  0  0  0  0  0  0
   20.2032   32.6926   34.9549 O   0  0  0  0  0  0  0  0  0  0  0  0
   17.9479   27.6246   34.9877 C   0  0  2  0  0  0  0  0  0  0  0  0
   20.0184   22.3565   31.9778 C   0  0  1  0  0  0  0  0  0  0  0  0
   19.7072   21.4314   30.9412 O   0  0  0  0  0  0  0  0  0  0  0  0
   19.8370   30.4192   33.9837 C   0  0  2  0  0  0  0  0  0  0  0  0
   20.3335   29.0256   34.0216 O   0  0  0  0  0  0  0  0  0  0  0  0
   18.3586   26.1325   34.8600 C   0  0  2  0  0  0  0  0  0  0  0  0
   19.5796   26.0723   34.1256 O   0  0  0  0  0  0  0  0  0  0  0  0
   19.3415   23.7339   31.6842 C   0  0  0  0  0  0  0  0  0  0  0  0
   17.8640   23.6144   31.6592 O   0  0  0  0  0  0  0  0  0  0  0  0
   19.8989   30.9078   32.5079 C   0  0  2  0  0  0  0  0  0  0  0  0
   19.0522   30.0814   31.7015 O   0  0  0  0  0  0  0  0  0  0  0  0
   17.2988   25.3069   34.0895 C   0  0  1  0  0  0  0  0  0  0  0  0
   17.7552   23.9270   34.0441 O   0  0  0  0  0  0  0  0  0  0  0  0
   21.2987   30.8318   31.9392 C   0  0  0  0  0  0  0  0  0  0  0  0
   21.5375   22.5298   32.0112 C   0  0  0  0  0  0  0  0  0  0  0  0
   20.3753   20.4712   35.0841 C   0  0  0  0  0  0  0  0  0  0  0  0
  1  2  1  1  0  0  0
  1  6  1  0  0  0  0
  1 23  1  0  0  0  0
  3  4  1  6  0  0  0
  3  8  1  0  0  0  0
  3 30  1  0  0  0  0
  5  9  1  0  0  0  0
  5 27  1  0  0  0  0
  5 31  1  1  0  0  0
  6  7  1  1  0  0  0
  6 11  1  0  0  0  0
  8 13  1  0  0  0  0
  9 10  1  1  0  0  0
  9 15  1  0  0  0  0
 11 12  1  1  0  0  0
 11 17  1  0  0  0  0
 13 14  1  6  0  0  0
 13 19  1  0  0  0  0
 15 16  1  6  0  0  0
 15 20  1  0  0  0  0
 16 34  1  0  0  0  0
 17 18  1  1  0  0  0
 17 22  1  0  0  0  0
 19  2  1  1  0  0  0
 19 24  1  0  0  0  0
 20 21  1  6  0  0  0
 20 26  1  0  0  0  0
 20 33  1  0  0  0  0
 22 23  1  6  0  0  0
 22 28  1  0  0  0  0
 24 25  1  6  0  0  0
 24 30  1  0  0  0  0
 26 27  1  0  0  0  0
 28 29  1  6  0  0  0
 28 32  1  0  0  0  0
 30 31  1  1  0  0  0
M  END
>  <CHROM.1>
-179.23547343,177.13197223,-100.50074815,-176.21587828,91.59170660,-176.78942297
19.00658944,26.40453894,34.15481940,-1.40584612,-0.45773289,-2.83970045

>  <Name>
ligand

>  <RI>
0

>  <Rbt.Current_Directory>
/home/itssahil/PROJECTS/Mol_Feturizer/New_Systems/rnas/4p3s

>  <Rbt.Executable>
rbdock ($Id: //depot/dev/client3/rdock/2013.1/src/exe/rbdock.cxx#4 $)

>  <Rbt.Library>
libRbt.so (2013.1, Build901 2013/11/27)

>  <Rbt.Parameter_File>
/export/apps/rDock/src/rDock_2013.1_src/data/scripts/dock_solv.prm

>  <Rbt.Receptor>
prm/pocket_docking_7.prm

>  <SCORE>
-17.6387

>  <SCORE.INTER>
-12.3053

>  <SCORE.INTER.CONST>
1

>  <SCORE.INTER.POLAR>
0

>  <SCORE.INTER.ROT>
6

>  <SCORE.INTER.SOLV>
14.6137

>  <SCORE.INTER.VDW>
-20.6747

>  <SCORE.INTER.norm>
-0.361919

>  <SCORE.INTRA>
-5.3334

>  <SCORE.INTRA.DIHEDRAL>
-10.8096

>  <SCORE.INTRA.DIHEDRAL.0>
15.8194

>  <SCORE.INTRA.POLAR>
0

>  <SCORE.INTRA.POLAR.0>
0

>  <SCORE.INTRA.REPUL>
0

>  <SCORE.INTRA.REPUL.0>
0

>  <SCORE.INTRA.SOLV>
-1.47135

>  <SCORE.INTRA.SOLV.lig_0>
-71.9159

>  <SCORE.INTRA.VDW>
0.807092

>  <SCORE.INTRA.VDW.0>
-3.53918

>  <SCORE.INTRA.norm>
-0.156865

>  <SCORE.RESTR>
0

>  <SCORE.RESTR.CAVITY>
0

>  <SCORE.RESTR.norm>
0

>  <SCORE.SYSTEM>
0

>  <SCORE.SYSTEM.CONST>
0

>  <SCORE.SYSTEM.DIHEDRAL>
0

>  <SCORE.SYSTEM.SOLV>
0

>  <SCORE.SYSTEM.norm>
0

>  <SCORE.heavy>
34

>  <SCORE.norm>
-0.518784

>  <RMSD>
9.103

$$$$
ligand
 OpenBabel01301917533D
libRbt.so/2013.1/901 2013/11/27
 34 36  0  0  0  0  0  0  0  0999 V2000
   19.3413   29.0565   36.2285 C   0  0  2  0  0  0  0  0  0  0  0  0
   18.0900   28.4948   36.6374 O   0  0  0  0  0  0  0  0  0  0  0  0
   15.6298   25.3358   35.0978 C   0  0  2  0  0  0  0  0  0  0  0  0
   14.7357   24.5562   34.2310 N   0  0  0  0  0  0  0  0  0  0  0  0
   17.1833   23.4326   33.0417 C   0  0  2  0  0  0  0  0  0  0  0  0
   19.9853   29.7725   37.4748 C   0  0  2  0  0  0  0  0  0  0  0  0
   20.1881   28.8216   38.5796 N   0  0  0  0  0  0  0  0  0  0  0  0
   14.9446   26.7240   35.3673 C   0  0  0  0  0  0  0  0  0  0  0  0
   17.7671   21.9917   33.3217 C   0  0  2  0  0  0  0  0  0  0  0  0
   17.2480   21.4779   34.5362 O   0  0  0  0  0  0  0  0  0  0  0  0
   19.0822   30.9531   37.9434 C   0  0  1  0  0  0  0  0  0  0  0  0
   19.6671   31.6104   39.0828 O   0  0  0  0  0  0  0  0  0  0  0  0
   15.8913   27.5484   36.3088 C   0  0  2  0  0  0  0  0  0  0  0  0
   15.3043   28.8867   36.6034 N   0  0  0  0  0  0  0  0  0  0  0  0
   19.3364   22.1051   33.4032 C   0  0  1  0  0  0  0  0  0  0  0  0
   19.9441   20.7924   33.7005 N   0  0  0  0  0  0  0  0  0  0  0  0
   18.8974   31.9269   36.7561 C   0  0  2  0  0  0  0  0  0  0  0  0
   18.0798   33.0263   37.1693 O   0  0  0  0  0  0  0  0  0  0  0  0
   17.2909   27.7471   35.6522 C   0  0  2  0  0  0  0  0  0  0  0  0
   19.8772   22.6603   32.0476 C   0  0  1  0  0  0  0  0  0  0  0  0
   19.5387   21.7382   31.0168 O   0  0  0  0  0  0  0  0  0  0  0  0
   18.2427   31.1358   35.5430 C   0  0  2  0  0  0  0  0  0  0  0  0
   19.0976   29.9977   35.1379 O   0  0  0  0  0  0  0  0  0  0  0  0
   17.9087   26.3573   35.3388 C   0  0  2  0  0  0  0  0  0  0  0  0
   19.1720   26.5675   34.7115 O   0  0  0  0  0  0  0  0  0  0  0  0
   19.2085   24.0441   31.7659 C   0  0  0  0  0  0  0  0  0  0  0  0
   17.7297   23.9387   31.7673 O   0  0  0  0  0  0  0  0  0  0  0  0
   18.0198   32.0338   34.2923 C   0  0  2  0  0  0  0  0  0  0  0  0
   17.1972   33.1490   34.6529 O   0  0  0  0  0  0  0  0  0  0  0  0
   17.0242   25.5397   34.3653 C   0  0  1  0  0  0  0  0  0  0  0  0
   17.6665   24.2524   34.1537 O   0  0  0  0  0  0  0  0  0  0  0  0
   17.3275   31.2905   33.1713 C   0  0  0  0  0  0  0  0  0  0  0  0
   21.3983   22.8190   32.0538 C   0  0  0  0  0  0  0  0  0  0  0  0
   20.2300   20.7544   35.1557 C   0  0  0  0  0  0  0  0  0  0  0  0
  1  2  1  1  0  0  0
  1  6  1  0  0  0  0
  1 23  1  0  0  0  0
  3  4  1  6  0  0  0
  3  8  1  0  0  0  0
  3 30  1  0  0  0  0
  5  9  1  0  0  0  0
  5 27  1  0  0  0  0
  5 31  1  1  0  0  0
  6  7  1  1  0  0  0
  6 11  1  0  0  0  0
  8 13  1  0  0  0  0
  9 10  1  1  0  0  0
  9 15  1  0  0  0  0
 11 12  1  1  0  0  0
 11 17  1  0  0  0  0
 13 14  1  6  0  0  0
 13 19  1  0  0  0  0
 15 16  1  6  0  0  0
 15 20  1  0  0  0  0
 16 34  1  0  0  0  0
 17 18  1  1  0  0  0
 17 22  1  0  0  0  0
 19  2  1  1  0  0  0
 19 24  1  0  0  0  0
 20 21  1  6  0  0  0
 20 26  1  0  0  0  0
 20 33  1  0  0  0  0
 22 23  1  6  0  0  0
 22 28  1  0  0  0  0
 24 25  1  6  0  0  0
 24 30  1  0  0  0  0
 26 27  1  0  0  0  0
 28 29  1  1  0  0  0
 28 32  1  0  0  0  0
 30 31  1  1  0  0  0
M  END
>  <CHROM.1>
-179.10330585,-168.06499284,-98.64739459,-57.34051960,78.34722049,-164.65370729
18.19884056,26.79191814,34.88090168,-1.62166909,0.29487192,-2.75941220

>  <Name>
ligand

>  <RI>
0

>  <Rbt.Current_Directory>
/home/itssahil/PROJECTS/Mol_Feturizer/New_Systems/rnas/4p3s

>  <Rbt.Executable>
rbdock ($Id: //depot/dev/client3/rdock/2013.1/src/exe/rbdock.cxx#4 $)

>  <Rbt.Library>
libRbt.so (2013.1, Build901 2013/11/27)

>  <Rbt.Parameter_File>
/export/apps/rDock/src/rDock_2013.1_src/data/scripts/dock_solv.prm

>  <Rbt.Receptor>
prm/pocket_docking_6.prm

>  <SCORE>
-18.1115

>  <SCORE.INTER>
-12.2972

>  <SCORE.INTER.CONST>
1

>  <SCORE.INTER.POLAR>
0

>  <SCORE.INTER.ROT>
6

>  <SCORE.INTER.SOLV>
12.661

>  <SCORE.INTER.VDW>
-20.0185

>  <SCORE.INTER.norm>
-0.361684

>  <SCORE.INTRA>
-5.81423

>  <SCORE.INTRA.DIHEDRAL>
-11.5234

>  <SCORE.INTRA.DIHEDRAL.0>
15.8194

>  <SCORE.INTRA.POLAR>
0

>  <SCORE.INTRA.POLAR.0>
0

>  <SCORE.INTRA.REPUL>
0

>  <SCORE.INTRA.REPUL.0>
0

>  <SCORE.INTRA.SOLV>
-0.364793

>  <SCORE.INTRA.SOLV.lig_0>
-71.9159

>  <SCORE.INTRA.VDW>
0.129854

>  <SCORE.INTRA.VDW.0>
-3.53918

>  <SCORE.INTRA.norm>
-0.171007

>  <SCORE.RESTR>
0

>  <SCORE.RESTR.CAVITY>
0

>  <SCORE.RESTR.norm>
0

>  <SCORE.SYSTEM>
0

>  <SCORE.SYSTEM.CONST>
0

>  <SCORE.SYSTEM.DIHEDRAL>
0

>  <SCORE.SYSTEM.SOLV>
0

>  <SCORE.SYSTEM.norm>
0

>  <SCORE.heavy>
34

>  <SCORE.norm>
-0.53269

>  <RMSD>
9.105

$$$$
ligand
 OpenBabel01301917533D
libRbt.so/2013.1/901 2013/11/27
 34 36  0  0  0  0  0  0  0  0999 V2000
   20.1217   28.5277   36.2596 C   0  0  2  0  0  0  0  0  0  0  0  0
   18.7504   28.3253   36.6157 O   0  0  0  0  0  0  0  0  0  0  0  0
   15.8128   25.5698   35.1392 C   0  0  2  0  0  0  0  0  0  0  0  0
   14.8120   24.9194   34.2825 N   0  0  0  0  0  0  0  0  0  0  0  0
   17.1434   23.3900   33.1146 C   0  0  2  0  0  0  0  0  0  0  0  0
   20.8580   29.1663   37.4968 C   0  0  2  0  0  0  0  0  0  0  0  0
   20.7595   28.2907   38.6756 N   0  0  0  0  0  0  0  0  0  0  0  0
   15.3688   27.0630   35.3452 C   0  0  0  0  0  0  0  0  0  0  0  0
   17.6932   21.9203   33.2963 C   0  0  2  0  0  0  0  0  0  0  0  0
   17.1659   21.3399   34.4768 O   0  0  0  0  0  0  0  0  0  0  0  0
   20.2545   30.5669   37.8183 C   0  0  1  0  0  0  0  0  0  0  0  0
   20.9246   31.1543   38.9489 O   0  0  0  0  0  0  0  0  0  0  0  0
   16.4280   27.7514   36.2760 C   0  0  2  0  0  0  0  0  0  0  0  0
   16.0720   29.1798   36.5110 N   0  0  0  0  0  0  0  0  0  0  0  0
   19.2651   21.9907   33.3775 C   0  0  1  0  0  0  0  0  0  0  0  0
   19.8420   20.6471   33.5848 N   0  0  0  0  0  0  0  0  0  0  0  0
   20.3805   31.4533   36.5571 C   0  0  2  0  0  0  0  0  0  0  0  0
   19.8423   32.7499   36.8351 O   0  0  0  0  0  0  0  0  0  0  0  0
   17.8502   27.6858   35.6416 C   0  0  2  0  0  0  0  0  0  0  0  0
   19.8147   22.6210   32.0589 C   0  0  1  0  0  0  0  0  0  0  0  0
   19.4508   21.7772   30.9712 O   0  0  0  0  0  0  0  0  0  0  0  0
   19.6135   30.7475   35.3573 C   0  0  2  0  0  0  0  0  0  0  0  0
   20.1776   29.4052   35.0928 O   0  0  0  0  0  0  0  0  0  0  0  0
   18.2281   26.2007   35.3903 C   0  0  2  0  0  0  0  0  0  0  0  0
   19.5175   26.1706   34.7818 O   0  0  0  0  0  0  0  0  0  0  0  0
   19.1786   24.0359   31.8722 C   0  0  0  0  0  0  0  0  0  0  0  0
   17.6977   23.9659   31.8737 O   0  0  0  0  0  0  0  0  0  0  0  0
   19.6869   31.5648   34.0355 C   0  0  2  0  0  0  0  0  0  0  0  0
   19.1104   32.8582   34.2479 O   0  0  0  0  0  0  0  0  0  0  0  0
   17.2318   25.5073   34.4286 C   0  0  1  0  0  0  0  0  0  0  0  0
   17.6498   24.1229   34.2759 O   0  0  0  0  0  0  0  0  0  0  0  0
   18.9284   30.8986   32.9089 C   0  0  0  0  0  0  0  0  0  0  0  0
   21.3392   22.7427   32.0682 C   0  0  0  0  0  0  0  0  0  0  0  0
   20.3029   20.5738   34.9930 C   0  0  0  0  0  0  0  0  0  0  0  0
  1  2  1  1  0  0  0
  1  6  1  0  0  0  0
  1 23  1  0  0  0  0
  3  4  1  6  0  0  0
  3  8  1  0  0  0  0
  3 30  1  0  0  0  0
  5  9  1  0  0  0  0
  5 27  1  0  0  0  0
  5 31  1  1  0  0  0
  6  7  1  1  0  0  0
  6 11  1  0  0  0  0
  8 13  1  0  0  0  0
  9 10  1  1  0  0  0
  9 15  1  0  0  0  0
 11 12  1  1  0  0  0
 11 17  1  0  0  0  0
 13 14  1  6  0  0  0
 13 19  1  0  0  0  0
 15 16  1  6  0  0  0
 15 20  1  0  0  0  0
 16 34  1  0  0  0  0
 17 18  1  1  0  0  0
 17 22  1  0  0  0  0
 19  2  1  1  0  0  0
 19 24  1  0  0  0  0
 20 21  1  6  0  0  0
 20 26  1  0  0  0  0
 20 33  1  0  0  0  0
 22 23  1  6  0  0  0
 22 28  1  0  0  0  0
 24 25  1  6  0  0  0
 24 30  1  0  0  0  0
 26 27  1  0  0  0  0
 28 29  1  1  0  0  0
 28 32  1  0  0  0  0
 30 31  1  1  0  0  0
M  END
>  <CHROM.1>
-177.62485087,-174.36411804,-106.28222390,-59.23102580,83.70014154,-176.27067459
18.76353453,26.62297925,34.82883021,-1.46337121,0.05490764,-2.78390486

>  <Name>
ligand

>  <RI>
0

>  <Rbt.Current_Directory>
/home/itssahil/PROJECTS/Mol_Feturizer/New_Systems/rnas/4p3s

>  <Rbt.Executable>
rbdock ($Id: //depot/dev/client3/rdock/2013.1/src/exe/rbdock.cxx#4 $)

>  <Rbt.Library>
libRbt.so (2013.1, Build901 2013/11/27)

>  <Rbt.Parameter_File>
/export/apps/rDock/src/rDock_2013.1_src/data/scripts/dock_solv.prm

>  <Rbt.Receptor>
prm/pocket_docking_6.prm

>  <SCORE>
-17.4533

>  <SCORE.INTER>
-10.9922

>  <SCORE.INTER.CONST>
1

>  <SCORE.INTER.POLAR>
0

>  <SCORE.INTER.ROT>
6

>  <SCORE.INTER.SOLV>
12.0858

>  <SCORE.INTER.VDW>
-18.9567

>  <SCORE.INTER.norm>
-0.323299

>  <SCORE.INTRA>
-6.46117

>  <SCORE.INTRA.DIHEDRAL>
-12.0073

>  <SCORE.INTRA.DIHEDRAL.0>
15.8194

>  <SCORE.INTRA.POLAR>
0

>  <SCORE.INTRA.POLAR.0>
0

>  <SCORE.INTRA.REPUL>
0

>  <SCORE.INTRA.REPUL.0>
0

>  <SCORE.INTRA.SOLV>
-1.0312

>  <SCORE.INTRA.SOLV.lig_0>
-71.9159

>  <SCORE.INTRA.VDW>
0.0580779

>  <SCORE.INTRA.VDW.0>
-3.53918

>  <SCORE.INTRA.norm>
-0.190034

>  <SCORE.RESTR>
0

>  <SCORE.RESTR.CAVITY>
0

>  <SCORE.RESTR.norm>
0

>  <SCORE.SYSTEM>
0

>  <SCORE.SYSTEM.CONST>
0

>  <SCORE.SYSTEM.DIHEDRAL>
0

>  <SCORE.SYSTEM.SOLV>
0

>  <SCORE.SYSTEM.norm>
0

>  <SCORE.heavy>
34

>  <SCORE.norm>
-0.513334

>  <RMSD>
9.107

$$$$
ligand
 OpenBabel01301917533D
libRbt.so/2013.1/901 2013/11/27
 34 36  0  0  0  0  0  0  0  0999 V2000
   17.8122   28.5196   37.9985 C   0  0  2  0  0  0  0  0  0  0  0  0
   17.7904   28.8858   36.6152 O   0  0  0  0  0  0  0  0  0  0  0  0
   15.8309   25.3422   35.1991 C   0  0  2  0  0  0  0  0  0  0  0  0
   15.1110   24.3904   34.3421 N   0  0  0  0  0  0  0  0  0  0  0  0
   19.2332   24.3864   33.6911 C   0  0  2  0  0  0  0  0  0  0  0  0
   18.2001   29.7964   38.8352 C   0  0  2  0  0  0  0  0  0  0  0  0
   17.2356   30.8849   38.6093 N   0  0  0  0  0  0  0  0  0  0  0  0
   14.9835   26.6640   35.2633 C   0  0  0  0  0  0  0  0  0  0  0  0
   18.6718   24.0698   32.2489 C   0  0  2  0  0  0  0  0  0  0  0  0
   17.8057   25.1061   31.8193 O   0  0  0  0  0  0  0  0  0  0  0  0
   19.6376   30.2686   38.4615 C   0  0  1  0  0  0  0  0  0  0  0  0
   19.9962   31.4357   39.2240 O   0  0  0  0  0  0  0  0  0  0  0  0
   15.7435   27.6729   36.1943 C   0  0  2  0  0  0  0  0  0  0  0  0
   14.9960   28.9586   36.2972 N   0  0  0  0  0  0  0  0  0  0  0  0
   17.8948   22.7007   32.3142 C   0  0  1  0  0  0  0  0  0  0  0  0
   17.3115   22.3635   31.0000 N   0  0  0  0  0  0  0  0  0  0  0  0
   20.6167   29.0985   38.7156 C   0  0  2  0  0  0  0  0  0  0  0  0
   21.9463   29.5157   38.3898 O   0  0  0  0  0  0  0  0  0  0  0  0
   17.1729   27.9652   35.6460 C   0  0  2  0  0  0  0  0  0  0  0  0
   18.8783   21.5794   32.7765 C   0  0  1  0  0  0  0  0  0  0  0  0
   19.9194   21.4682   31.8116 O   0  0  0  0  0  0  0  0  0  0  0  0
   20.1638   27.8530   37.8383 C   0  0  2  0  0  0  0  0  0  0  0  0
   18.7838   27.4442   38.1827 O   0  0  0  0  0  0  0  0  0  0  0  0
   17.9580   26.6302   35.5324 C   0  0  2  0  0  0  0  0  0  0  0  0
   19.2485   26.9213   34.9999 O   0  0  0  0  0  0  0  0  0  0  0  0
   19.4775   21.9741   34.1645 C   0  0  0  0  0  0  0  0  0  0  0  0
   20.1401   23.2993   34.1087 O   0  0  0  0  0  0  0  0  0  0  0  0
   21.0892   26.6171   38.0292 C   0  0  2  0  0  0  0  0  0  0  0  0
   21.2197   26.3370   39.4273 O   0  0  0  0  0  0  0  0  0  0  0  0
   17.2620   25.6320   34.5745 C   0  0  1  0  0  0  0  0  0  0  0  0
   18.0509   24.4106   34.5535 O   0  0  0  0  0  0  0  0  0  0  0  0
   22.4761   26.8504   37.4717 C   0  0  0  0  0  0  0  0  0  0  0  0
   18.1917   20.2171   32.8845 C   0  0  0  0  0  0  0  0  0  0  0  0
   15.8813   22.0364   31.2194 C   0  0  0  0  0  0  0  0  0  0  0  0
  1  2  1  6  0  0  0
  1  6  1  0  0  0  0
  1 23  1  0  0  0  0
  3  4  1  6  0  0  0
  3  8  1  0  0  0  0
  3 30  1  0  0  0  0
  5  9  1  0  0  0  0
  5 27  1  0  0  0  0
  5 31  1  1  0  0  0
  6  7  1  6  0  0  0
  6 11  1  0  0  0  0
  8 13  1  0  0  0  0
  9 10  1  1  0  0  0
  9 15  1  0  0  0  0
 11 12  1  1  0  0  0
 11 17  1  0  0  0  0
 13 14  1  6  0  0  0
 13 19  1  0  0  0  0
 15 16  1  6  0  0  0
 15 20  1  0  0  0  0
 16 34  1  0  0  0  0
 17 18  1  6  0  0  0
 17 22  1  0  0  0  0
 19  2  1  1  0  0  0
 19 24  1  0  0  0  0
 20 21  1  6  0  0  0
 20 26  1  0  0  0  0
 20 33  1  0  0  0  0
 22 23  1  1  0  0  0
 22 28  1  0  0  0  0
 24 25  1  6  0  0  0
 24 30  1  0  0  0  0
 26 27  1  0  0  0  0
 28 29  1  1  0  0  0
 28 32  1  0  0  0  0
 30 31  1  1  0  0  0
M  END
>  <CHROM.1>
-166.65348608,53.24791413,-129.45101274,51.82117957,163.37796230,-81.40382400
18.47911786,26.08890082,35.54251399,1.40630182,-0.33866274,0.65747317

>  <Name>
ligand

>  <RI>
0

>  <Rbt.Current_Directory>
/home/itssahil/PROJECTS/Mol_Feturizer/New_Systems/rnas/4p3s

>  <Rbt.Executable>
rbdock ($Id: //depot/dev/client3/rdock/2013.1/src/exe/rbdock.cxx#4 $)

>  <Rbt.Library>
libRbt.so (2013.1, Build901 2013/11/27)

>  <Rbt.Parameter_File>
/export/apps/rDock/src/rDock_2013.1_src/data/scripts/dock_solv.prm

>  <Rbt.Receptor>
prm/pocket_docking_6.prm

>  <SCORE>
-12.5936

>  <SCORE.INTER>
-9.71436

>  <SCORE.INTER.CONST>
1

>  <SCORE.INTER.POLAR>
0

>  <SCORE.INTER.ROT>
6

>  <SCORE.INTER.SOLV>
14.5752

>  <SCORE.INTER.VDW>
-18.9346

>  <SCORE.INTER.norm>
-0.285716

>  <SCORE.INTRA>
-2.87919

>  <SCORE.INTRA.DIHEDRAL>
-10.0043

>  <SCORE.INTRA.DIHEDRAL.0>
15.8194

>  <SCORE.INTRA.POLAR>
0

>  <SCORE.INTRA.POLAR.0>
0

>  <SCORE.INTRA.REPUL>
0

>  <SCORE.INTRA.REPUL.0>
0

>  <SCORE.INTRA.SOLV>
1.79716

>  <SCORE.INTRA.SOLV.lig_0>
-71.9159

>  <SCORE.INTRA.VDW>
1.22438

>  <SCORE.INTRA.VDW.0>
-3.53918

>  <SCORE.INTRA.norm>
-0.0846822

>  <SCORE.RESTR>
0

>  <SCORE.RESTR.CAVITY>
0

>  <SCORE.RESTR.norm>
0

>  <SCORE.SYSTEM>
0

>  <SCORE.SYSTEM.CONST>
0

>  <SCORE.SYSTEM.DIHEDRAL>
0

>  <SCORE.SYSTEM.SOLV>
0

>  <SCORE.SYSTEM.norm>
0

>  <SCORE.heavy>
34

>  <SCORE.norm>
-0.370399

>  <RMSD>
9.107

$$$$
ligand
 OpenBabel01301917533D
libRbt.so/2013.1/901 2013/11/27
 34 36  0  0  0  0  0  0  0  0999 V2000
   20.7789   28.2104   36.2947 C   0  0  2  0  0  0  0  0  0  0  0  0
   19.3781   28.2567   36.5844 O   0  0  0  0  0  0  0  0  0  0  0  0
   16.2067   25.7466   35.1548 C   0  0  2  0  0  0  0  0  0  0  0  0
   15.1588   25.1658   34.3045 N   0  0  0  0  0  0  0  0  0  0  0  0
   17.3348   23.3755   33.2348 C   0  0  2  0  0  0  0  0  0  0  0  0
   21.5524   28.8105   37.5285 C   0  0  2  0  0  0  0  0  0  0  0  0
   21.2580   28.0495   38.7533 N   0  0  0  0  0  0  0  0  0  0  0  0
   15.9068   27.2820   35.3026 C   0  0  0  0  0  0  0  0  0  0  0  0
   17.8036   21.8804   33.4347 C   0  0  2  0  0  0  0  0  0  0  0  0
   17.2686   21.3532   34.6365 O   0  0  0  0  0  0  0  0  0  0  0  0
   21.1725   30.3091   37.7249 C   0  0  1  0  0  0  0  0  0  0  0  0
   21.8773   30.8617   38.8519 O   0  0  0  0  0  0  0  0  0  0  0  0
   17.0156   27.8976   36.2266 C   0  0  2  0  0  0  0  0  0  0  0  0
   16.7967   29.3611   36.4070 N   0  0  0  0  0  0  0  0  0  0  0  0
   19.3783   21.8621   33.4838 C   0  0  1  0  0  0  0  0  0  0  0  0
   19.8820   20.4918   33.7062 N   0  0  0  0  0  0  0  0  0  0  0  0
   21.4995   31.0704   36.4189 C   0  0  2  0  0  0  0  0  0  0  0  0
   21.1689   32.4532   36.5824 O   0  0  0  0  0  0  0  0  0  0  0  0
   18.4329   27.6729   35.6180 C   0  0  2  0  0  0  0  0  0  0  0  0
   19.9356   22.4353   32.1425 C   0  0  1  0  0  0  0  0  0  0  0  0
   19.5019   21.5937   31.0790 O   0  0  0  0  0  0  0  0  0  0  0  0
   20.6829   30.4119   35.2249 C   0  0  2  0  0  0  0  0  0  0  0  0
   21.0311   28.9809   35.0792 O   0  0  0  0  0  0  0  0  0  0  0  0
   18.6683   26.1503   35.4236 C   0  0  2  0  0  0  0  0  0  0  0  0
   19.9565   25.9744   34.8377 O   0  0  0  0  0  0  0  0  0  0  0  0
   19.3773   23.8806   31.9403 C   0  0  0  0  0  0  0  0  0  0  0  0
   17.8952   23.8956   31.9722 O   0  0  0  0  0  0  0  0  0  0  0  0
   20.9497   31.1092   33.8600 C   0  0  2  0  0  0  0  0  0  0  0  0
   20.5472   32.4807   33.9443 O   0  0  0  0  0  0  0  0  0  0  0  0
   17.6220   25.5225   34.4699 C   0  0  1  0  0  0  0  0  0  0  0  0
   17.9059   24.0997   34.3713 O   0  0  0  0  0  0  0  0  0  0  0  0
   20.1756   30.4675   32.7297 C   0  0  0  0  0  0  0  0  0  0  0  0
   21.4644   22.4696   32.1196 C   0  0  0  0  0  0  0  0  0  0  0  0
   20.3964   20.4275   35.0962 C   0  0  0  0  0  0  0  0  0  0  0  0
  1  2  1  1  0  0  0
  1  6  1  0  0  0  0
  1 23  1  0  0  0  0
  3  4  1  6  0  0  0
  3  8  1  0  0  0  0
  3 30  1  0  0  0  0
  5  9  1  0  0  0  0
  5 27  1  0  0  0  0
  5 31  1  1  0  0  0
  6  7  1  1  0  0  0
  6 11  1  0  0  0  0
  8 13  1  0  0  0  0
  9 10  1  1  0  0  0
  9 15  1  0  0  0  0
 11 12  1  1  0  0  0
 11 17  1  0  0  0  0
 13 14  1  6  0  0  0
 13 19  1  0  0  0  0
 15 16  1  6  0  0  0
 15 20  1  0  0  0  0
 16 34  1  0  0  0  0
 17 18  1  1  0  0  0
 17 22  1  0  0  0  0
 19  2  1  1  0  0  0
 19 24  1  0  0  0  0
 20 21  1  6  0  0  0
 20 26  1  0  0  0  0
 20 33  1  0  0  0  0
 22 23  1  6  0  0  0
 22 28  1  0  0  0  0
 24 25  1  6  0  0  0
 24 30  1  0  0  0  0
 26 27  1  0  0  0  0
 28 29  1  1  0  0  0
 28 32  1  0  0  0  0
 30 31  1  1  0  0  0
M  END
>  <CHROM.1>
-176.21047324,-179.63380365,-107.59659812,-60.90947707,83.09786302,-179.09827418
19.31647975,26.47691522,34.82584246,-1.35692380,-0.08067436,-2.77357899

>  <Name>
ligand

>  <RI>
0

>  <Rbt.Current_Directory>
/home/itssahil/PROJECTS/Mol_Feturizer/New_Systems/rnas/4p3s

>  <Rbt.Executable>
rbdock ($Id: //depot/dev/client3/rdock/2013.1/src/exe/rbdock.cxx#4 $)

>  <Rbt.Library>
libRbt.so (2013.1, Build901 2013/11/27)

>  <Rbt.Parameter_File>
/export/apps/rDock/src/rDock_2013.1_src/data/scripts/dock_solv.prm

>  <Rbt.Receptor>
prm/pocket_docking_5.prm

>  <SCORE>
-17.2745

>  <SCORE.INTER>
-10.8779

>  <SCORE.INTER.CONST>
1

>  <SCORE.INTER.POLAR>
0

>  <SCORE.INTER.ROT>
6

>  <SCORE.INTER.SOLV>
12.798

>  <SCORE.INTER.VDW>
-19.1179

>  <SCORE.INTER.norm>
-0.319938

>  <SCORE.INTRA>
-6.39659

>  <SCORE.INTRA.DIHEDRAL>
-12.2639

>  <SCORE.INTRA.DIHEDRAL.0>
15.8194

>  <SCORE.INTRA.POLAR>
0

>  <SCORE.INTRA.POLAR.0>
0

>  <SCORE.INTRA.REPUL>
0

>  <SCORE.INTRA.REPUL.0>
0

>  <SCORE.INTRA.SOLV>
-1.12521

>  <SCORE.INTRA.SOLV.lig_0>
-71.9159

>  <SCORE.INTRA.VDW>
0.297951

>  <SCORE.INTRA.VDW.0>
-3.53918

>  <SCORE.INTRA.norm>
-0.188135

>  <SCORE.RESTR>
0

>  <SCORE.RESTR.CAVITY>
0

>  <SCORE.RESTR.norm>
0

>  <SCORE.SYSTEM>
0

>  <SCORE.SYSTEM.CONST>
0

>  <SCORE.SYSTEM.DIHEDRAL>
0

>  <SCORE.SYSTEM.SOLV>
0

>  <SCORE.SYSTEM.norm>
0

>  <SCORE.heavy>
34

>  <SCORE.norm>
-0.508073

>  <RMSD>
9.110

$$$$
ligand
 OpenBabel01301917533D
libRbt.so/2013.1/901 2013/11/27
 34 36  0  0  0  0  0  0  0  0999 V2000
   20.1624   28.5297   36.3996 C   0  0  2  0  0  0  0  0  0  0  0  0
   18.7975   28.2780   36.7489 O   0  0  0  0  0  0  0  0  0  0  0  0
   15.8342   25.6176   35.1541 C   0  0  2  0  0  0  0  0  0  0  0  0
   14.8389   25.0063   34.2630 N   0  0  0  0  0  0  0  0  0  0  0  0
   17.1677   23.4500   33.1131 C   0  0  2  0  0  0  0  0  0  0  0  0
   20.9375   28.9234   37.7130 C   0  0  2  0  0  0  0  0  0  0  0  0
   20.8557   27.8471   38.7134 N   0  0  0  0  0  0  0  0  0  0  0  0
   15.4184   27.1161   35.3797 C   0  0  0  0  0  0  0  0  0  0  0  0
   17.7043   21.9719   33.2638 C   0  0  2  0  0  0  0  0  0  0  0  0
   17.1518   21.3630   34.4182 O   0  0  0  0  0  0  0  0  0  0  0  0
   20.3616   30.2466   38.3017 C   0  0  1  0  0  0  0  0  0  0  0  0
   21.0673   30.6102   39.5026 O   0  0  0  0  0  0  0  0  0  0  0  0
   16.4713   27.7626   36.3470 C   0  0  2  0  0  0  0  0  0  0  0  0
   16.1415   29.1939   36.6022 N   0  0  0  0  0  0  0  0  0  0  0  0
   19.2748   22.0287   33.3749 C   0  0  1  0  0  0  0  0  0  0  0  0
   19.8389   20.6758   33.5551 N   0  0  0  0  0  0  0  0  0  0  0  0
   20.4690   31.3484   37.2216 C   0  0  2  0  0  0  0  0  0  0  0  0
   19.9559   32.5768   37.7468 O   0  0  0  0  0  0  0  0  0  0  0  0
   17.9056   27.6776   35.7428 C   0  0  2  0  0  0  0  0  0  0  0  0
   19.8524   22.6912   32.0843 C   0  0  1  0  0  0  0  0  0  0  0  0
   19.5025   21.8804   30.9673 O   0  0  0  0  0  0  0  0  0  0  0  0
   19.6631   30.8821   35.9335 C   0  0  2  0  0  0  0  0  0  0  0  0
   20.2019   29.6061   35.4125 O   0  0  0  0  0  0  0  0  0  0  0  0
   18.2565   26.1895   35.4707 C   0  0  2  0  0  0  0  0  0  0  0  0
   19.5583   26.1423   34.8903 O   0  0  0  0  0  0  0  0  0  0  0  0
   19.2292   24.1153   31.9255 C   0  0  0  0  0  0  0  0  0  0  0  0
   17.7481   24.0559   31.8987 O   0  0  0  0  0  0  0  0  0  0  0  0
   19.7156   31.9276   34.7826 C   0  0  2  0  0  0  0  0  0  0  0  0
   18.8531   31.5042   33.7210 O   0  0  0  0  0  0  0  0  0  0  0  0
   17.2670   25.5371   34.4738 C   0  0  1  0  0  0  0  0  0  0  0  0
   17.6580   24.1469   34.3031 O   0  0  0  0  0  0  0  0  0  0  0  0
   21.1090   32.0820   34.2142 C   0  0  0  0  0  0  0  0  0  0  0  0
   21.3772   22.8016   32.1241 C   0  0  0  0  0  0  0  0  0  0  0  0
   20.2531   20.5524   34.9742 C   0  0  0  0  0  0  0  0  0  0  0  0
  1  2  1  1  0  0  0
  1  6  1  0  0  0  0
  1 23  1  0  0  0  0
  3  4  1  6  0  0  0
  3  8  1  0  0  0  0
  3 30  1  0  0  0  0
  5  9  1  0  0  0  0
  5 27  1  0  0  0  0
  5 31  1  1  0  0  0
  6  7  1  1  0  0  0
  6 11  1  0  0  0  0
  8 13  1  0  0  0  0
  9 10  1  1  0  0  0
  9 15  1  0  0  0  0
 11 12  1  1  0  0  0
 11 17  1  0  0  0  0
 13 14  1  6  0  0  0
 13 19  1  0  0  0  0
 15 16  1  6  0  0  0
 15 20  1  0  0  0  0
 16 34  1  0  0  0  0
 17 18  1  1  0  0  0
 17 22  1  0  0  0  0
 19  2  1  1  0  0  0
 19 24  1  0  0  0  0
 20 21  1  6  0  0  0
 20 26  1  0  0  0  0
 20 33  1  0  0  0  0
 22 23  1  6  0  0  0
 22 28  1  0  0  0  0
 24 25  1  6  0  0  0
 24 30  1  0  0  0  0
 26 27  1  0  0  0  0
 28 29  1  6  0  0  0
 28 32  1  0  0  0  0
 30 31  1  1  0  0  0
M  END
>  <CHROM.1>
-170.06429504,-170.69374686,-105.35726656,-173.77314084,84.01545266,-177.39272973
18.86393936,26.60234457,35.00894288,-1.43593262,0.01014255,-2.72847753

>  <Name>
ligand

>  <RI>
0

>  <Rbt.Current_Directory>
/home/itssahil/PROJECTS/Mol_Feturizer/New_Systems/rnas/4p3s

>  <Rbt.Executable>
rbdock ($Id: //depot/dev/client3/rdock/2013.1/src/exe/rbdock.cxx#4 $)

>  <Rbt.Library>
libRbt.so (2013.1, Build901 2013/11/27)

>  <Rbt.Parameter_File>
/export/apps/rDock/src/rDock_2013.1_src/data/scripts/dock_solv.prm

>  <Rbt.Receptor>
prm/pocket_docking_7.prm

>  <SCORE>
-16.2787

>  <SCORE.INTER>
-10.5023

>  <SCORE.INTER.CONST>
1

>  <SCORE.INTER.POLAR>
0

>  <SCORE.INTER.ROT>
6

>  <SCORE.INTER.SOLV>
12.1322

>  <SCORE.INTER.VDW>
-18.6456

>  <SCORE.INTER.norm>
-0.30889

>  <SCORE.INTRA>
-5.77646

>  <SCORE.INTRA.DIHEDRAL>
-11.1469

>  <SCORE.INTRA.DIHEDRAL.0>
15.8194

>  <SCORE.INTRA.POLAR>
0

>  <SCORE.INTRA.POLAR.0>
0

>  <SCORE.INTRA.REPUL>
0

>  <SCORE.INTRA.REPUL.0>
0

>  <SCORE.INTRA.SOLV>
-1.12367

>  <SCORE.INTRA.SOLV.lig_0>
-71.9159

>  <SCORE.INTRA.VDW>
0.358815

>  <SCORE.INTRA.VDW.0>
-3.53918

>  <SCORE.INTRA.norm>
-0.169896

>  <SCORE.RESTR>
0

>  <SCORE.RESTR.CAVITY>
0

>  <SCORE.RESTR.norm>
0

>  <SCORE.SYSTEM>
0

>  <SCORE.SYSTEM.CONST>
0

>  <SCORE.SYSTEM.DIHEDRAL>
0

>  <SCORE.SYSTEM.SOLV>
0

>  <SCORE.SYSTEM.norm>
0

>  <SCORE.heavy>
34

>  <SCORE.norm>
-0.478786

>  <RMSD>
9.111

$$$$
ligand
 OpenBabel01301917533D
libRbt.so/2013.1/901 2013/11/27
 34 36  0  0  0  0  0  0  0  0999 V2000
   19.3749   28.8838   35.9770 C   0  0  2  0  0  0  0  0  0  0  0  0
   18.0916   28.4244   36.4133 O   0  0  0  0  0  0  0  0  0  0  0  0
   15.5821   25.2285   35.0384 C   0  0  2  0  0  0  0  0  0  0  0  0
   14.6566   24.4291   34.2242 N   0  0  0  0  0  0  0  0  0  0  0  0
   17.1368   23.3383   32.8887 C   0  0  2  0  0  0  0  0  0  0  0  0
   19.9705   29.8100   37.1032 C   0  0  2  0  0  0  0  0  0  0  0  0
   20.0941   29.0780   38.3739 N   0  0  0  0  0  0  0  0  0  0  0  0
   14.9036   26.6201   35.3070 C   0  0  0  0  0  0  0  0  0  0  0  0
   17.7046   21.8889   33.1575 C   0  0  2  0  0  0  0  0  0  0  0  0
   17.1403   21.3509   34.3410 O   0  0  0  0  0  0  0  0  0  0  0  0
   19.0721   31.0689   37.2956 C   0  0  1  0  0  0  0  0  0  0  0  0
   19.6128   31.9184   38.3244 O   0  0  0  0  0  0  0  0  0  0  0  0
   15.8846   27.4659   36.1927 C   0  0  2  0  0  0  0  0  0  0  0  0
   15.3055   28.8084   36.4836 N   0  0  0  0  0  0  0  0  0  0  0  0
   19.2704   21.9933   33.2976 C   0  0  1  0  0  0  0  0  0  0  0  0
   19.8620   20.6716   33.5873 N   0  0  0  0  0  0  0  0  0  0  0  0
   18.9713   31.8079   35.9407 C   0  0  2  0  0  0  0  0  0  0  0  0
   18.1592   32.9757   36.0985 O   0  0  0  0  0  0  0  0  0  0  0  0
   17.2561   27.6548   35.4765 C   0  0  2  0  0  0  0  0  0  0  0  0
   19.8616   22.5756   31.9749 C   0  0  1  0  0  0  0  0  0  0  0  0
   19.5568   21.6779   30.9124 O   0  0  0  0  0  0  0  0  0  0  0  0
   18.3616   30.8142   34.8604 C   0  0  2  0  0  0  0  0  0  0  0  0
   19.2096   29.6095   34.7198 O   0  0  0  0  0  0  0  0  0  0  0  0
   17.8654   26.2604   35.1667 C   0  0  2  0  0  0  0  0  0  0  0  0
   19.1018   26.4610   34.4849 O   0  0  0  0  0  0  0  0  0  0  0  0
   19.2088   23.9683   31.7001 C   0  0  0  0  0  0  0  0  0  0  0  0
   17.7304   23.8698   31.6462 O   0  0  0  0  0  0  0  0  0  0  0  0
   18.2241   31.4675   33.4552 C   0  0  2  0  0  0  0  0  0  0  0  0
   19.4415   32.1475   33.1299 O   0  0  0  0  0  0  0  0  0  0  0  0
   16.9452   25.4210   34.2464 C   0  0  1  0  0  0  0  0  0  0  0  0
   17.5829   24.1312   34.0352 O   0  0  0  0  0  0  0  0  0  0  0  0
   17.1000   32.4786   33.4027 C   0  0  0  0  0  0  0  0  0  0  0  0
   21.3821   22.7271   32.0390 C   0  0  0  0  0  0  0  0  0  0  0  0
   20.2338   20.6562   35.0234 C   0  0  0  0  0  0  0  0  0  0  0  0
  1  2  1  1  0  0  0
  1  6  1  0  0  0  0
  1 23  1  0  0  0  0
  3  4  1  6  0  0  0
  3  8  1  0  0  0  0
  3 30  1  0  0  0  0
  5  9  1  0  0  0  0
  5 27  1  0  0  0  0
  5 31  1  1  0  0  0
  6  7  1  1  0  0  0
  6 11  1  0  0  0  0
  8 13  1  0  0  0  0
  9 10  1  1  0  0  0
  9 15  1  0  0  0  0
 11 12  1  1  0  0  0
 11 17  1  0  0  0  0
 13 14  1  6  0  0  0
 13 19  1  0  0  0  0
 15 16  1  6  0  0  0
 15 20  1  0  0  0  0
 16 34  1  0  0  0  0
 17 18  1  1  0  0  0
 17 22  1  0  0  0  0
 19  2  1  1  0  0  0
 19 24  1  0  0  0  0
 20 21  1  6  0  0  0
 20 26  1  0  0  0  0
 20 33  1  0  0  0  0
 22 23  1  6  0  0  0
 22 28  1  0  0  0  0
 24 25  1  6  0  0  0
 24 30  1  0  0  0  0
 26 27  1  0  0  0  0
 28 29  1  1  0  0  0
 28 32  1  0  0  0  0
 30 31  1  1  0  0  0
M  END
>  <CHROM.1>
173.45907455,-173.31787075,-104.79949820,46.87445605,83.54422625,-165.10099139
18.25380844,26.70843297,34.58184761,-1.58948879,-0.37034197,-2.83769917

>  <Name>
ligand

>  <RI>
0

>  <Rbt.Current_Directory>
/home/itssahil/PROJECTS/Mol_Feturizer/New_Systems/rnas/4p3s

>  <Rbt.Executable>
rbdock ($Id: //depot/dev/client3/rdock/2013.1/src/exe/rbdock.cxx#4 $)

>  <Rbt.Library>
libRbt.so (2013.1, Build901 2013/11/27)

>  <Rbt.Parameter_File>
/export/apps/rDock/src/rDock_2013.1_src/data/scripts/dock_solv.prm

>  <Rbt.Receptor>
prm/pocket_docking_5.prm

>  <SCORE>
-17.3605

>  <SCORE.INTER>
-12.376

>  <SCORE.INTER.CONST>
1

>  <SCORE.INTER.POLAR>
0

>  <SCORE.INTER.ROT>
6

>  <SCORE.INTER.SOLV>
12.5866

>  <SCORE.INTER.VDW>
-20.0462

>  <SCORE.INTER.norm>
-0.363999

>  <SCORE.INTRA>
-4.98455

>  <SCORE.INTRA.DIHEDRAL>
-10.2721

>  <SCORE.INTRA.DIHEDRAL.0>
15.8194

>  <SCORE.INTRA.POLAR>
0

>  <SCORE.INTRA.POLAR.0>
0

>  <SCORE.INTRA.REPUL>
0

>  <SCORE.INTRA.REPUL.0>
0

>  <SCORE.INTRA.SOLV>
-0.512866

>  <SCORE.INTRA.SOLV.lig_0>
-71.9159

>  <SCORE.INTRA.VDW>
0.40793

>  <SCORE.INTRA.VDW.0>
-3.53918

>  <SCORE.INTRA.norm>
-0.146604

>  <SCORE.RESTR>
0

>  <SCORE.RESTR.CAVITY>
0

>  <SCORE.RESTR.norm>
0

>  <SCORE.SYSTEM>
0

>  <SCORE.SYSTEM.CONST>
0

>  <SCORE.SYSTEM.DIHEDRAL>
0

>  <SCORE.SYSTEM.SOLV>
0

>  <SCORE.SYSTEM.norm>
0

>  <SCORE.heavy>
34

>  <SCORE.norm>
-0.510604

>  <RMSD>
9.123

$$$$
ligand
 OpenBabel01301917533D
libRbt.so/2013.1/901 2013/11/27
 34 36  0  0  0  0  0  0  0  0999 V2000
   18.6193   29.7485   35.7384 C   0  0  2  0  0  0  0  0  0  0  0  0
   17.5400   28.9214   36.1846 O   0  0  0  0  0  0  0  0  0  0  0  0
   16.1234   25.0858   34.8870 C   0  0  2  0  0  0  0  0  0  0  0  0
   15.4945   24.0245   34.0890 N   0  0  0  0  0  0  0  0  0  0  0  0
   19.4301   24.8228   32.9470 C   0  0  2  0  0  0  0  0  0  0  0  0
   19.0335   30.6940   36.9279 C   0  0  2  0  0  0  0  0  0  0  0  0
   19.4427   29.9096   38.1040 N   0  0  0  0  0  0  0  0  0  0  0  0
   15.0564   26.2192   35.1017 C   0  0  0  0  0  0  0  0  0  0  0  0
   18.7985   24.3307   31.5853 C   0  0  2  0  0  0  0  0  0  0  0  0
   17.6715   25.1223   31.2509 O   0  0  0  0  0  0  0  0  0  0  0  0
   17.8522   31.6401   37.2999 C   0  0  1  0  0  0  0  0  0  0  0  0
   18.2265   32.5063   38.3872 O   0  0  0  0  0  0  0  0  0  0  0  0
   15.7229   27.3432   35.9703 C   0  0  2  0  0  0  0  0  0  0  0  0
   14.7648   28.4600   36.2100 N   0  0  0  0  0  0  0  0  0  0  0  0
   18.3751   22.8229   31.7571 C   0  0  1  0  0  0  0  0  0  0  0  0
   17.7416   22.3106   30.5254 N   0  0  0  0  0  0  0  0  0  0  0  0
   17.4567   32.4451   36.0399 C   0  0  2  0  0  0  0  0  0  0  0  0
   16.3798   33.3304   36.3634 O   0  0  0  0  0  0  0  0  0  0  0  0
   16.9907   27.9118   35.2642 C   0  0  2  0  0  0  0  0  0  0  0  0
   19.6389   21.9769   32.1110 C   0  0  1  0  0  0  0  0  0  0  0  0
   20.5611   22.0721   31.0302 O   0  0  0  0  0  0  0  0  0  0  0  0
   17.0502   31.4269   34.8893 C   0  0  2  0  0  0  0  0  0  0  0  0
   18.1727   30.5144   34.5771 O   0  0  0  0  0  0  0  0  0  0  0  0
   17.9934   26.7541   35.0075 C   0  0  2  0  0  0  0  0  0  0  0  0
   19.1282   27.2946   34.3338 O   0  0  0  0  0  0  0  0  0  0  0  0
   20.2828   22.5516   33.4135 C   0  0  0  0  0  0  0  0  0  0  0  0
   20.6070   23.9907   33.2653 O   0  0  0  0  0  0  0  0  0  0  0  0
   16.6382   32.1445   33.5718 C   0  0  2  0  0  0  0  0  0  0  0  0
   16.2812   31.1634   32.5919 O   0  0  0  0  0  0  0  0  0  0  0  0
   17.3838   25.6532   34.1049 C   0  0  1  0  0  0  0  0  0  0  0  0
   18.3803   24.6065   33.9437 O   0  0  0  0  0  0  0  0  0  0  0  0
   17.7620   32.9815   33.0016 C   0  0  0  0  0  0  0  0  0  0  0  0
   19.3061   20.4981   32.3144 C   0  0  0  0  0  0  0  0  0  0  0  0
   16.3459   21.9396   30.8647 C   0  0  0  0  0  0  0  0  0  0  0  0
  1  2  1  1  0  0  0
  1  6  1  0  0  0  0
  1 23  1  0  0  0  0
  3  4  1  6  0  0  0
  3  8  1  0  0  0  0
  3 30  1  0  0  0  0
  5  9  1  0  0  0  0
  5 27  1  0  0  0  0
  5 31  1  1  0  0  0
  6  7  1  1  0  0  0
  6 11  1  0  0  0  0
  8 13  1  0  0  0  0
  9 10  1  1  0  0  0
  9 15  1  0  0  0  0
 11 12  1  1  0  0  0
 11 17  1  0  0  0  0
 13 14  1  6  0  0  0
 13 19  1  0  0  0  0
 15 16  1  6  0  0  0
 15 20  1  0  0  0  0
 16 34  1  0  0  0  0
 17 18  1  1  0  0  0
 17 22  1  0  0  0  0
 19  2  1  1  0  0  0
 19 24  1  0  0  0  0
 20 21  1  6  0  0  0
 20 26  1  0  0  0  0
 20 33  1  0  0  0  0
 22 23  1  6  0  0  0
 22 28  1  0  0  0  0
 24 25  1  6  0  0  0
 24 30  1  0  0  0  0
 26 27  1  0  0  0  0
 28 29  1  6  0  0  0
 28 32  1  0  0  0  0
 30 31  1  1  0  0  0
M  END
>  <CHROM.1>
-178.20582064,-172.04053400,-117.40633032,-179.69276379,163.55374517,-85.23449445
17.84684402,27.16877005,34.20473723,-1.72892334,0.63194092,-2.63763115

>  <Name>
ligand

>  <RI>
0

>  <Rbt.Current_Directory>
/home/itssahil/PROJECTS/Mol_Feturizer/New_Systems/rnas/4p3s

>  <Rbt.Executable>
rbdock ($Id: //depot/dev/client3/rdock/2013.1/src/exe/rbdock.cxx#4 $)

>  <Rbt.Library>
libRbt.so (2013.1, Build901 2013/11/27)

>  <Rbt.Parameter_File>
/export/apps/rDock/src/rDock_2013.1_src/data/scripts/dock_solv.prm

>  <Rbt.Receptor>
prm/pocket_docking_6.prm

>  <SCORE>
-13.6231

>  <SCORE.INTER>
-8.93141

>  <SCORE.INTER.CONST>
1

>  <SCORE.INTER.POLAR>
0

>  <SCORE.INTER.ROT>
6

>  <SCORE.INTER.SOLV>
17.5591

>  <SCORE.INTER.VDW>
-19.4073

>  <SCORE.INTER.norm>
-0.262688

>  <SCORE.INTRA>
-4.69169

>  <SCORE.INTRA.DIHEDRAL>
-10.2598

>  <SCORE.INTRA.DIHEDRAL.0>
15.8194

>  <SCORE.INTRA.POLAR>
0

>  <SCORE.INTRA.POLAR.0>
0

>  <SCORE.INTRA.REPUL>
0

>  <SCORE.INTRA.REPUL.0>
0

>  <SCORE.INTRA.SOLV>
-0.381164

>  <SCORE.INTRA.SOLV.lig_0>
-71.9159

>  <SCORE.INTRA.VDW>
0.628808

>  <SCORE.INTRA.VDW.0>
-3.53918

>  <SCORE.INTRA.norm>
-0.137991

>  <SCORE.RESTR>
0

>  <SCORE.RESTR.CAVITY>
0

>  <SCORE.RESTR.norm>
0

>  <SCORE.SYSTEM>
0

>  <SCORE.SYSTEM.CONST>
0

>  <SCORE.SYSTEM.DIHEDRAL>
0

>  <SCORE.SYSTEM.SOLV>
0

>  <SCORE.SYSTEM.norm>
0

>  <SCORE.heavy>
34

>  <SCORE.norm>
-0.400679

>  <RMSD>
9.125

$$$$
ligand
 OpenBabel01301917533D
libRbt.so/2013.1/901 2013/11/27
 34 36  0  0  0  0  0  0  0  0999 V2000
   19.1110   29.4518   35.2939 C   0  0  2  0  0  0  0  0  0  0  0  0
   18.0385   28.7862   35.9685 O   0  0  0  0  0  0  0  0  0  0  0  0
   15.6370   25.3356   35.1154 C   0  0  2  0  0  0  0  0  0  0  0  0
   14.6812   24.4207   34.4764 N   0  0  0  0  0  0  0  0  0  0  0  0
   17.1196   23.4830   32.8062 C   0  0  2  0  0  0  0  0  0  0  0  0
   19.8970   30.3101   36.3552 C   0  0  2  0  0  0  0  0  0  0  0  0
   20.4219   29.4582   37.4344 N   0  0  0  0  0  0  0  0  0  0  0  0
   14.8894   26.6888   35.3965 C   0  0  0  0  0  0  0  0  0  0  0  0
   17.6552   22.0379   33.1528 C   0  0  2  0  0  0  0  0  0  0  0  0
   17.0708   21.5721   34.3569 O   0  0  0  0  0  0  0  0  0  0  0  0
   18.9702   31.4143   36.9474 C   0  0  1  0  0  0  0  0  0  0  0  0
   19.6847   32.2012   37.9183 O   0  0  0  0  0  0  0  0  0  0  0  0
   15.9055   27.6584   36.0964 C   0  0  2  0  0  0  0  0  0  0  0  0
   15.2629   28.9714   36.3889 N   0  0  0  0  0  0  0  0  0  0  0  0
   19.2217   22.1174   33.3012 C   0  0  1  0  0  0  0  0  0  0  0  0
   19.7837   20.8004   33.6625 N   0  0  0  0  0  0  0  0  0  0  0  0
   18.4440   32.2856   35.7829 C   0  0  2  0  0  0  0  0  0  0  0  0
   17.5992   33.3149   36.3071 O   0  0  0  0  0  0  0  0  0  0  0  0
   17.1535   27.8996   35.1945 C   0  0  2  0  0  0  0  0  0  0  0  0
   19.8351   22.6199   31.9560 C   0  0  1  0  0  0  0  0  0  0  0  0
   19.5201   21.6759   30.9376 O   0  0  0  0  0  0  0  0  0  0  0  0
   17.6629   31.3538   34.7594 C   0  0  2  0  0  0  0  0  0  0  0  0
   18.5502   30.2906   34.2373 O   0  0  0  0  0  0  0  0  0  0  0  0
   17.8276   26.5360   34.8820 C   0  0  2  0  0  0  0  0  0  0  0  0
   18.9458   26.7813   34.0315 O   0  0  0  0  0  0  0  0  0  0  0  0
   19.2134   24.0099   31.6055 C   0  0  0  0  0  0  0  0  0  0  0  0
   17.7338   23.9387   31.5437 O   0  0  0  0  0  0  0  0  0  0  0  0
   17.0962   32.1419   33.5436 C   0  0  2  0  0  0  0  0  0  0  0  0
   16.3360   31.2527   32.7179 O   0  0  0  0  0  0  0  0  0  0  0  0
   16.8668   25.5749   34.1394 C   0  0  1  0  0  0  0  0  0  0  0  0
   17.5732   24.3238   33.9151 O   0  0  0  0  0  0  0  0  0  0  0  0
   18.1920   32.7430   32.6913 C   0  0  0  0  0  0  0  0  0  0  0  0
   21.3579   22.7436   32.0257 C   0  0  0  0  0  0  0  0  0  0  0  0
   20.1755   20.8614   35.0920 C   0  0  0  0  0  0  0  0  0  0  0  0
  1  2  1  1  0  0  0
  1  6  1  0  0  0  0
  1 23  1  0  0  0  0
  3  4  1  6  0  0  0
  3  8  1  0  0  0  0
  3 30  1  0  0  0  0
  5  9  1  0  0  0  0
  5 27  1  0  0  0  0
  5 31  1  1  0  0  0
  6  7  1  1  0  0  0
  6 11  1  0  0  0  0
  8 13  1  0  0  0  0
  9 10  1  1  0  0  0
  9 15  1  0  0  0  0
 11 12  1  1  0  0  0
 11 17  1  0  0  0  0
 13 14  1  6  0  0  0
 13 19  1  0  0  0  0
 15 16  1  6  0  0  0
 15 20  1  0  0  0  0
 16 34  1  0  0  0  0
 17 18  1  1  0  0  0
 17 22  1  0  0  0  0
 19  2  1  1  0  0  0
 19 24  1  0  0  0  0
 20 21  1  6  0  0  0
 20 26  1  0  0  0  0
 20 33  1  0  0  0  0
 22 23  1  6  0  0  0
 22 28  1  0  0  0  0
 24 25  1  6  0  0  0
 24 30  1  0  0  0  0
 26 27  1  0  0  0  0
 28 29  1  6  0  0  0
 28 32  1  0  0  0  0
 30 31  1  1  0  0  0
M  END
>  <CHROM.1>
-179.29388504,-164.95785822,-106.19905351,-176.25570594,88.75470959,-158.89204919
18.05739905,26.92017553,34.39505012,-1.63476493,-0.12737106,-2.87801964

>  <Name>
ligand

>  <RI>
0

>  <Rbt.Current_Directory>
/home/itssahil/PROJECTS/Mol_Feturizer/New_Systems/rnas/4p3s

>  <Rbt.Executable>
rbdock ($Id: //depot/dev/client3/rdock/2013.1/src/exe/rbdock.cxx#4 $)

>  <Rbt.Library>
libRbt.so (2013.1, Build901 2013/11/27)

>  <Rbt.Parameter_File>
/export/apps/rDock/src/rDock_2013.1_src/data/scripts/dock_solv.prm

>  <Rbt.Receptor>
prm/pocket_docking_8.prm

>  <SCORE>
-17.367

>  <SCORE.INTER>
-13.1163

>  <SCORE.INTER.CONST>
1

>  <SCORE.INTER.POLAR>
0

>  <SCORE.INTER.ROT>
6

>  <SCORE.INTER.SOLV>
14.3311

>  <SCORE.INTER.VDW>
-21.1212

>  <SCORE.INTER.norm>
-0.385775

>  <SCORE.INTRA>
-4.25068

>  <SCORE.INTRA.DIHEDRAL>
-8.26128

>  <SCORE.INTRA.DIHEDRAL.0>
15.8194

>  <SCORE.INTRA.POLAR>
0

>  <SCORE.INTRA.POLAR.0>
0

>  <SCORE.INTRA.REPUL>
0

>  <SCORE.INTRA.REPUL.0>
0

>  <SCORE.INTRA.SOLV>
-0.591267

>  <SCORE.INTRA.SOLV.lig_0>
-71.9159

>  <SCORE.INTRA.VDW>
0.175594

>  <SCORE.INTRA.VDW.0>
-3.53918

>  <SCORE.INTRA.norm>
-0.12502

>  <SCORE.RESTR>
0

>  <SCORE.RESTR.CAVITY>
0

>  <SCORE.RESTR.norm>
0

>  <SCORE.SYSTEM>
0

>  <SCORE.SYSTEM.CONST>
0

>  <SCORE.SYSTEM.DIHEDRAL>
0

>  <SCORE.SYSTEM.SOLV>
0

>  <SCORE.SYSTEM.norm>
0

>  <SCORE.heavy>
34

>  <SCORE.norm>
-0.510795

>  <RMSD>
9.126

$$$$
ligand
 OpenBabel01301917533D
libRbt.so/2013.1/901 2013/11/27
 34 36  0  0  0  0  0  0  0  0999 V2000
   19.0612   29.4001   35.4279 C   0  0  2  0  0  0  0  0  0  0  0  0
   17.9613   28.7269   36.0486 O   0  0  0  0  0  0  0  0  0  0  0  0
   15.6057   25.2808   35.0597 C   0  0  2  0  0  0  0  0  0  0  0  0
   14.6807   24.3705   34.3710 N   0  0  0  0  0  0  0  0  0  0  0  0
   17.1535   23.4225   32.8383 C   0  0  2  0  0  0  0  0  0  0  0  0
   19.8235   30.2160   36.5388 C   0  0  2  0  0  0  0  0  0  0  0  0
   20.3057   29.3251   37.6064 N   0  0  0  0  0  0  0  0  0  0  0  0
   14.8442   26.6306   35.3192 C   0  0  0  0  0  0  0  0  0  0  0  0
   17.7202   21.9918   33.1950 C   0  0  2  0  0  0  0  0  0  0  0  0
   17.1509   21.5248   34.4059 O   0  0  0  0  0  0  0  0  0  0  0  0
   18.8910   31.3124   37.1367 C   0  0  1  0  0  0  0  0  0  0  0  0
   19.5838   32.0605   38.1528 O   0  0  0  0  0  0  0  0  0  0  0  0
   15.8266   27.5952   36.0719 C   0  0  2  0  0  0  0  0  0  0  0  0
   15.1695   28.9048   36.3472 N   0  0  0  0  0  0  0  0  0  0  0  0
   19.2854   22.1046   33.3352 C   0  0  1  0  0  0  0  0  0  0  0  0
   19.8758   20.8026   33.7054 N   0  0  0  0  0  0  0  0  0  0  0  0
   18.4104   32.2253   35.9844 C   0  0  2  0  0  0  0  0  0  0  0  0
   17.5611   33.2479   36.5145 O   0  0  0  0  0  0  0  0  0  0  0  0
   17.1130   27.8460   35.2284 C   0  0  2  0  0  0  0  0  0  0  0  0
   19.8822   22.6075   31.9827 C   0  0  1  0  0  0  0  0  0  0  0  0
   19.5819   21.6483   30.9742 O   0  0  0  0  0  0  0  0  0  0  0  0
   17.6511   31.3347   34.9091 C   0  0  2  0  0  0  0  0  0  0  0  0
   18.5423   30.2777   34.3814 O   0  0  0  0  0  0  0  0  0  0  0  0
   17.8025   26.4861   34.9341 C   0  0  2  0  0  0  0  0  0  0  0  0
   18.9569   26.7403   34.1362 O   0  0  0  0  0  0  0  0  0  0  0  0
   19.2305   23.9813   31.6230 C   0  0  0  0  0  0  0  0  0  0  0  0
   17.7524   23.8794   31.5689 O   0  0  0  0  0  0  0  0  0  0  0  0
   17.1305   32.1665   33.7018 C   0  0  2  0  0  0  0  0  0  0  0  0
   16.4063   31.3075   32.8143 O   0  0  0  0  0  0  0  0  0  0  0  0
   16.8771   25.5304   34.1413 C   0  0  1  0  0  0  0  0  0  0  0  0
   17.5948   24.2821   33.9375 O   0  0  0  0  0  0  0  0  0  0  0  0
   18.2575   32.8004   32.9165 C   0  0  0  0  0  0  0  0  0  0  0  0
   21.4024   22.7630   32.0442 C   0  0  0  0  0  0  0  0  0  0  0  0
   20.1601   20.8412   35.1609 C   0  0  0  0  0  0  0  0  0  0  0  0
  1  2  1  1  0  0  0
  1  6  1  0  0  0  0
  1 23  1  0  0  0  0
  3  4  1  6  0  0  0
  3  8  1  0  0  0  0
  3 30  1  0  0  0  0
  5  9  1  0  0  0  0
  5 27  1  0  0  0  0
  5 31  1  1  0  0  0
  6  7  1  1  0  0  0
  6 11  1  0  0  0  0
  8 13  1  0  0  0  0
  9 10  1  1  0  0  0
  9 15  1  0  0  0  0
 11 12  1  1  0  0  0
 11 17  1  0  0  0  0
 13 14  1  6  0  0  0
 13 19  1  0  0  0  0
 15 16  1  6  0  0  0
 15 20  1  0  0  0  0
 16 34  1  0  0  0  0
 17 18  1  1  0  0  0
 17 22  1  0  0  0  0
 19  2  1  1  0  0  0
 19 24  1  0  0  0  0
 20 21  1  6  0  0  0
 20 26  1  0  0  0  0
 20 33  1  0  0  0  0
 22 23  1  6  0  0  0
 22 28  1  0  0  0  0
 24 25  1  6  0  0  0
 24 30  1  0  0  0  0
 26 27  1  0  0  0  0
 28 29  1  6  0  0  0
 28 32  1  0  0  0  0
 30 31  1  1  0  0  0
M  END
>  <CHROM.1>
-177.63983035,-164.93386862,-101.17724409,-177.25220555,86.11467750,-159.81870365
18.05275540,26.87878541,34.46926527,-1.64258472,-0.07053555,-2.86143438

>  <Name>
ligand

>  <RI>
0

>  <Rbt.Current_Directory>
/home/itssahil/PROJECTS/Mol_Feturizer/New_Systems/rnas/4p3s

>  <Rbt.Executable>
rbdock ($Id: //depot/dev/client3/rdock/2013.1/src/exe/rbdock.cxx#4 $)

>  <Rbt.Library>
libRbt.so (2013.1, Build901 2013/11/27)

>  <Rbt.Parameter_File>
/export/apps/rDock/src/rDock_2013.1_src/data/scripts/dock_solv.prm

>  <Rbt.Receptor>
prm/pocket_docking_5.prm

>  <SCORE>
-17.4199

>  <SCORE.INTER>
-12.9215

>  <SCORE.INTER.CONST>
1

>  <SCORE.INTER.POLAR>
0

>  <SCORE.INTER.ROT>
6

>  <SCORE.INTER.SOLV>
14.3629

>  <SCORE.INTER.VDW>
-21.0019

>  <SCORE.INTER.norm>
-0.380043

>  <SCORE.INTRA>
-4.49843

>  <SCORE.INTRA.DIHEDRAL>
-9.01336

>  <SCORE.INTRA.DIHEDRAL.0>
15.8194

>  <SCORE.INTRA.POLAR>
0

>  <SCORE.INTRA.POLAR.0>
0

>  <SCORE.INTRA.REPUL>
0

>  <SCORE.INTRA.REPUL.0>
0

>  <SCORE.INTRA.SOLV>
-0.576905

>  <SCORE.INTRA.SOLV.lig_0>
-71.9159

>  <SCORE.INTRA.VDW>
0.296706

>  <SCORE.INTRA.VDW.0>
-3.53918

>  <SCORE.INTRA.norm>
-0.132307

>  <SCORE.RESTR>
0

>  <SCORE.RESTR.CAVITY>
0

>  <SCORE.RESTR.norm>
0

>  <SCORE.SYSTEM>
0

>  <SCORE.SYSTEM.CONST>
0

>  <SCORE.SYSTEM.DIHEDRAL>
0

>  <SCORE.SYSTEM.SOLV>
0

>  <SCORE.SYSTEM.norm>
0

>  <SCORE.heavy>
34

>  <SCORE.norm>
-0.51235

>  <RMSD>
9.127

$$$$
ligand
 OpenBabel01301917533D
libRbt.so/2013.1/901 2013/11/27
 34 36  0  0  0  0  0  0  0  0999 V2000
   19.3311   28.9987   35.9520 C   0  0  2  0  0  0  0  0  0  0  0  0
   18.0809   28.4807   36.4178 O   0  0  0  0  0  0  0  0  0  0  0  0
   15.5844   25.2587   35.0804 C   0  0  2  0  0  0  0  0  0  0  0  0
   14.6605   24.4468   34.2768 N   0  0  0  0  0  0  0  0  0  0  0  0
   17.1323   23.3514   32.9510 C   0  0  2  0  0  0  0  0  0  0  0  0
   19.9448   29.8926   37.0944 C   0  0  2  0  0  0  0  0  0  0  0  0
   20.1421   29.1095   38.3248 N   0  0  0  0  0  0  0  0  0  0  0  0
   14.8992   26.6489   35.3388 C   0  0  0  0  0  0  0  0  0  0  0  0
   17.7072   21.9080   33.2364 C   0  0  2  0  0  0  0  0  0  0  0  0
   17.1568   21.3869   34.4339 O   0  0  0  0  0  0  0  0  0  0  0  0
   19.0184   31.1131   37.3792 C   0  0  1  0  0  0  0  0  0  0  0  0
   19.5757   31.9329   38.4231 O   0  0  0  0  0  0  0  0  0  0  0  0
   15.8785   27.5081   36.2135 C   0  0  2  0  0  0  0  0  0  0  0  0
   15.2929   28.8500   36.4942 N   0  0  0  0  0  0  0  0  0  0  0  0
   19.2741   22.0190   33.3586 C   0  0  1  0  0  0  0  0  0  0  0  0
   19.8727   20.7037   33.6627 N   0  0  0  0  0  0  0  0  0  0  0  0
   18.8402   31.9075   36.0643 C   0  0  2  0  0  0  0  0  0  0  0  0
   18.0013   33.0412   36.3069 O   0  0  0  0  0  0  0  0  0  0  0  0
   17.2464   27.6980   35.4908 C   0  0  2  0  0  0  0  0  0  0  0  0
   19.8499   22.5823   32.0209 C   0  0  1  0  0  0  0  0  0  0  0  0
   19.5369   21.6674   30.9758 O   0  0  0  0  0  0  0  0  0  0  0  0
   18.2163   30.9438   34.9651 C   0  0  2  0  0  0  0  0  0  0  0  0
   19.0929   29.7736   34.7366 O   0  0  0  0  0  0  0  0  0  0  0  0
   17.8624   26.3043   35.1915 C   0  0  2  0  0  0  0  0  0  0  0  0
   19.0953   26.5054   34.5037 O   0  0  0  0  0  0  0  0  0  0  0  0
   19.1900   23.9687   31.7313 C   0  0  0  0  0  0  0  0  0  0  0  0
   17.7115   23.8652   31.6943 O   0  0  0  0  0  0  0  0  0  0  0  0
   18.0020   31.6538   33.5975 C   0  0  2  0  0  0  0  0  0  0  0  0
   19.1616   32.4328   33.2836 O   0  0  0  0  0  0  0  0  0  0  0  0
   16.9437   25.4514   34.2820 C   0  0  1  0  0  0  0  0  0  0  0  0
   17.5878   24.1633   34.0804 O   0  0  0  0  0  0  0  0  0  0  0  0
   16.8097   32.5847   33.6177 C   0  0  0  0  0  0  0  0  0  0  0  0
   21.3705   22.7392   32.0670 C   0  0  0  0  0  0  0  0  0  0  0  0
   20.2320   20.7011   35.1021 C   0  0  0  0  0  0  0  0  0  0  0  0
  1  2  1  1  0  0  0
  1  6  1  0  0  0  0
  1 23  1  0  0  0  0
  3  4  1  6  0  0  0
  3  8  1  0  0  0  0
  3 30  1  0  0  0  0
  5  9  1  0  0  0  0
  5 27  1  0  0  0  0
  5 31  1  1  0  0  0
  6  7  1  1  0  0  0
  6 11  1  0  0  0  0
  8 13  1  0  0  0  0
  9 10  1  1  0  0  0
  9 15  1  0  0  0  0
 11 12  1  1  0  0  0
 11 17  1  0  0  0  0
 13 14  1  6  0  0  0
 13 19  1  0  0  0  0
 15 16  1  6  0  0  0
 15 20  1  0  0  0  0
 16 34  1  0  0  0  0
 17 18  1  1  0  0  0
 17 22  1  0  0  0  0
 19  2  1  1  0  0  0
 19 24  1  0  0  0  0
 20 21  1  6  0  0  0
 20 26  1  0  0  0  0
 20 33  1  0  0  0  0
 22 23  1  6  0  0  0
 22 28  1  0  0  0  0
 24 25  1  6  0  0  0
 24 30  1  0  0  0  0
 26 27  1  0  0  0  0
 28 29  1  1  0  0  0
 28 32  1  0  0  0  0
 30 31  1  1  0  0  0
M  END
>  <CHROM.1>
175.00212127,-170.29593653,-103.57713937,44.33825236,82.90991842,-164.79600899
18.20693527,26.76506502,34.64271794,-1.60288734,-0.24600424,-2.84056848

>  <Name>
ligand

>  <RI>
0

>  <Rbt.Current_Directory>
/home/itssahil/PROJECTS/Mol_Feturizer/New_Systems/rnas/4p3s

>  <Rbt.Executable>
rbdock ($Id: //depot/dev/client3/rdock/2013.1/src/exe/rbdock.cxx#4 $)

>  <Rbt.Library>
libRbt.so (2013.1, Build901 2013/11/27)

>  <Rbt.Parameter_File>
/export/apps/rDock/src/rDock_2013.1_src/data/scripts/dock_solv.prm

>  <Rbt.Receptor>
prm/pocket_docking_8.prm

>  <SCORE>
-17.4412

>  <SCORE.INTER>
-12.4914

>  <SCORE.INTER.CONST>
1

>  <SCORE.INTER.POLAR>
0

>  <SCORE.INTER.ROT>
6

>  <SCORE.INTER.SOLV>
12.6449

>  <SCORE.INTER.VDW>
-20.1426

>  <SCORE.INTER.norm>
-0.367394

>  <SCORE.INTRA>
-4.94986

>  <SCORE.INTRA.DIHEDRAL>
-9.97932

>  <SCORE.INTRA.DIHEDRAL.0>
15.8194

>  <SCORE.INTRA.POLAR>
0

>  <SCORE.INTRA.POLAR.0>
0

>  <SCORE.INTRA.REPUL>
0

>  <SCORE.INTRA.REPUL.0>
0

>  <SCORE.INTRA.SOLV>
-0.41828

>  <SCORE.INTRA.SOLV.lig_0>
-71.9159

>  <SCORE.INTRA.VDW>
0.248939

>  <SCORE.INTRA.VDW.0>
-3.53918

>  <SCORE.INTRA.norm>
-0.145584

>  <SCORE.RESTR>
0

>  <SCORE.RESTR.CAVITY>
0

>  <SCORE.RESTR.norm>
0

>  <SCORE.SYSTEM>
0

>  <SCORE.SYSTEM.CONST>
0

>  <SCORE.SYSTEM.DIHEDRAL>
0

>  <SCORE.SYSTEM.SOLV>
0

>  <SCORE.SYSTEM.norm>
0

>  <SCORE.heavy>
34

>  <SCORE.norm>
-0.512978

>  <RMSD>
9.128

$$$$
ligand
 OpenBabel01301917533D
libRbt.so/2013.1/901 2013/11/27
 34 36  0  0  0  0  0  0  0  0999 V2000
   19.3445   29.0613   36.0816 C   0  0  2  0  0  0  0  0  0  0  0  0
   18.1269   28.4691   36.5452 O   0  0  0  0  0  0  0  0  0  0  0  0
   15.5864   25.3277   35.1030 C   0  0  2  0  0  0  0  0  0  0  0  0
   14.6582   24.5522   34.2689 N   0  0  0  0  0  0  0  0  0  0  0  0
   17.1420   23.4455   32.9419 C   0  0  2  0  0  0  0  0  0  0  0  0
   20.0489   29.7529   37.3088 C   0  0  2  0  0  0  0  0  0  0  0  0
   20.3282   28.7755   38.3730 N   0  0  0  0  0  0  0  0  0  0  0  0
   14.9252   26.7257   35.3821 C   0  0  0  0  0  0  0  0  0  0  0  0
   17.7044   21.9896   33.1855 C   0  0  2  0  0  0  0  0  0  0  0  0
   17.1304   21.4292   34.3538 O   0  0  0  0  0  0  0  0  0  0  0  0
   19.1576   30.9060   37.8613 C   0  0  1  0  0  0  0  0  0  0  0  0
   19.7977   31.5409   38.9835 O   0  0  0  0  0  0  0  0  0  0  0  0
   15.9087   27.5458   36.2889 C   0  0  2  0  0  0  0  0  0  0  0  0
   15.3460   28.8929   36.5906 N   0  0  0  0  0  0  0  0  0  0  0  0
   19.2695   22.0871   33.3388 C   0  0  1  0  0  0  0  0  0  0  0  0
   19.8559   20.7584   33.6060 N   0  0  0  0  0  0  0  0  0  0  0  0
   18.8912   31.9088   36.7145 C   0  0  2  0  0  0  0  0  0  0  0  0
   18.0833   32.9836   37.2045 O   0  0  0  0  0  0  0  0  0  0  0  0
   17.2904   27.7236   35.5898 C   0  0  2  0  0  0  0  0  0  0  0  0
   19.8716   22.6945   32.0324 C   0  0  1  0  0  0  0  0  0  0  0  0
   19.5723   21.8192   30.9499 O   0  0  0  0  0  0  0  0  0  0  0  0
   18.1792   31.1411   35.5188 C   0  0  2  0  0  0  0  0  0  0  0  0
   19.0253   30.0281   35.0337 O   0  0  0  0  0  0  0  0  0  0  0  0
   17.8828   26.3245   35.2687 C   0  0  2  0  0  0  0  0  0  0  0  0
   19.1293   26.5155   34.6028 O   0  0  0  0  0  0  0  0  0  0  0  0
   19.2240   24.0941   31.7811 C   0  0  0  0  0  0  0  0  0  0  0  0
   17.7459   24.0004   31.7146 O   0  0  0  0  0  0  0  0  0  0  0  0
   17.8721   32.0694   34.3088 C   0  0  2  0  0  0  0  0  0  0  0  0
   17.0387   33.1499   34.7427 O   0  0  0  0  0  0  0  0  0  0  0  0
   16.9606   25.5102   34.3281 C   0  0  1  0  0  0  0  0  0  0  0  0
   17.5817   24.2140   34.1073 O   0  0  0  0  0  0  0  0  0  0  0  0
   17.1461   31.3407   33.1994 C   0  0  0  0  0  0  0  0  0  0  0  0
   21.3919   22.8409   32.1104 C   0  0  0  0  0  0  0  0  0  0  0  0
   20.1708   20.6947   35.0543 C   0  0  0  0  0  0  0  0  0  0  0  0
  1  2  1  1  0  0  0
  1  6  1  0  0  0  0
  1 23  1  0  0  0  0
  3  4  1  6  0  0  0
  3  8  1  0  0  0  0
  3 30  1  0  0  0  0
  5  9  1  0  0  0  0
  5 27  1  0  0  0  0
  5 31  1  1  0  0  0
  6  7  1  1  0  0  0
  6 11  1  0  0  0  0
  8 13  1  0  0  0  0
  9 10  1  1  0  0  0
  9 15  1  0  0  0  0
 11 12  1  1  0  0  0
 11 17  1  0  0  0  0
 13 14  1  6  0  0  0
 13 19  1  0  0  0  0
 15 16  1  6  0  0  0
 15 20  1  0  0  0  0
 16 34  1  0  0  0  0
 17 18  1  1  0  0  0
 17 22  1  0  0  0  0
 19  2  1  1  0  0  0
 19 24  1  0  0  0  0
 20 21  1  6  0  0  0
 20 26  1  0  0  0  0
 20 33  1  0  0  0  0
 22 23  1  6  0  0  0
 22 28  1  0  0  0  0
 24 25  1  6  0  0  0
 24 30  1  0  0  0  0
 26 27  1  0  0  0  0
 28 29  1  1  0  0  0
 28 32  1  0  0  0  0
 30 31  1  1  0  0  0
M  END
>  <CHROM.1>
-178.43873879,-165.46386766,-102.73331518,-58.23192605,83.88058595,-166.04406249
18.17318217,26.78513865,34.82709070,-1.61903435,0.24872240,-2.76305950

>  <Name>
ligand

>  <RI>
0

>  <Rbt.Current_Directory>
/home/itssahil/PROJECTS/Mol_Feturizer/New_Systems/rnas/4p3s

>  <Rbt.Executable>
rbdock ($Id: //depot/dev/client3/rdock/2013.1/src/exe/rbdock.cxx#4 $)

>  <Rbt.Library>
libRbt.so (2013.1, Build901 2013/11/27)

>  <Rbt.Parameter_File>
/export/apps/rDock/src/rDock_2013.1_src/data/scripts/dock_solv.prm

>  <Rbt.Receptor>
prm/pocket_docking_5.prm

>  <SCORE>
-18.0463

>  <SCORE.INTER>
-12.5862

>  <SCORE.INTER.CONST>
1

>  <SCORE.INTER.POLAR>
0

>  <SCORE.INTER.ROT>
6

>  <SCORE.INTER.SOLV>
12.6515

>  <SCORE.INTER.VDW>
-20.208

>  <SCORE.INTER.norm>
-0.370183

>  <SCORE.INTRA>
-5.46012

>  <SCORE.INTRA.DIHEDRAL>
-10.3798

>  <SCORE.INTRA.DIHEDRAL.0>
15.8194

>  <SCORE.INTRA.POLAR>
0

>  <SCORE.INTRA.POLAR.0>
0

>  <SCORE.INTRA.REPUL>
0

>  <SCORE.INTRA.REPUL.0>
0

>  <SCORE.INTRA.SOLV>
-0.3388

>  <SCORE.INTRA.SOLV.lig_0>
-71.9159

>  <SCORE.INTRA.VDW>
-0.100808

>  <SCORE.INTRA.VDW.0>
-3.53918

>  <SCORE.INTRA.norm>
-0.160592

>  <SCORE.RESTR>
0

>  <SCORE.RESTR.CAVITY>
0

>  <SCORE.RESTR.norm>
0

>  <SCORE.SYSTEM>
0

>  <SCORE.SYSTEM.CONST>
0

>  <SCORE.SYSTEM.DIHEDRAL>
0

>  <SCORE.SYSTEM.SOLV>
0

>  <SCORE.SYSTEM.norm>
0

>  <SCORE.heavy>
34

>  <SCORE.norm>
-0.530775

>  <RMSD>
9.130

$$$$
ligand
 OpenBabel01301917533D
libRbt.so/2013.1/901 2013/11/27
 34 36  0  0  0  0  0  0  0  0999 V2000
   19.3149   28.8630   36.4397 C   0  0  2  0  0  0  0  0  0  0  0  0
   18.0310   28.3328   36.7843 O   0  0  0  0  0  0  0  0  0  0  0  0
   15.5530   25.2756   35.0770 C   0  0  2  0  0  0  0  0  0  0  0  0
   14.6740   24.5395   34.1581 N   0  0  0  0  0  0  0  0  0  0  0  0
   17.1175   23.3660   33.0552 C   0  0  2  0  0  0  0  0  0  0  0  0
   19.8596   29.6669   37.6797 C   0  0  2  0  0  0  0  0  0  0  0  0
   19.9658   28.7982   38.8629 N   0  0  0  0  0  0  0  0  0  0  0  0
   14.8936   26.6751   35.3519 C   0  0  0  0  0  0  0  0  0  0  0  0
   17.6968   21.9179   33.3057 C   0  0  2  0  0  0  0  0  0  0  0  0
   17.1705   21.3780   34.5057 O   0  0  0  0  0  0  0  0  0  0  0  0
   18.9287   30.8786   37.9868 C   0  0  1  0  0  0  0  0  0  0  0  0
   19.4230   31.6163   39.1199 O   0  0  0  0  0  0  0  0  0  0  0  0
   15.8233   27.4528   36.3484 C   0  0  2  0  0  0  0  0  0  0  0  0
   15.2598   28.7993   36.6511 N   0  0  0  0  0  0  0  0  0  0  0  0
   19.2659   22.0260   33.3976 C   0  0  1  0  0  0  0  0  0  0  0  0
   19.8694   20.7056   33.6684 N   0  0  0  0  0  0  0  0  0  0  0  0
   18.8474   31.7641   36.7214 C   0  0  2  0  0  0  0  0  0  0  0  0
   18.0057   32.8908   36.9863 O   0  0  0  0  0  0  0  0  0  0  0  0
   17.2524   27.6288   35.7517 C   0  0  2  0  0  0  0  0  0  0  0  0
   19.8148   22.6103   32.0576 C   0  0  1  0  0  0  0  0  0  0  0  0
   19.4796   21.7123   31.0046 O   0  0  0  0  0  0  0  0  0  0  0  0
   18.2888   30.8877   35.5189 C   0  0  2  0  0  0  0  0  0  0  0  0
   19.1668   29.7231   35.2680 O   0  0  0  0  0  0  0  0  0  0  0  0
   17.8461   26.2303   35.4301 C   0  0  2  0  0  0  0  0  0  0  0  0
   19.1382   26.4207   34.8575 O   0  0  0  0  0  0  0  0  0  0  0  0
   19.1504   24.0015   31.8037 C   0  0  0  0  0  0  0  0  0  0  0  0
   17.6714   23.8994   31.7952 O   0  0  0  0  0  0  0  0  0  0  0  0
   18.1741   31.6932   34.1928 C   0  0  2  0  0  0  0  0  0  0  0  0
   19.3652   32.4654   34.0054 O   0  0  0  0  0  0  0  0  0  0  0  0
   16.9799   25.4585   34.4042 C   0  0  1  0  0  0  0  0  0  0  0  0
   17.5968   24.1595   34.1878 O   0  0  0  0  0  0  0  0  0  0  0  0
   17.0001   32.6472   34.2036 C   0  0  0  0  0  0  0  0  0  0  0  0
   21.3362   22.7654   32.0750 C   0  0  0  0  0  0  0  0  0  0  0  0
   20.2784   20.6879   35.0943 C   0  0  0  0  0  0  0  0  0  0  0  0
  1  2  1  1  0  0  0
  1  6  1  0  0  0  0
  1 23  1  0  0  0  0
  3  4  1  6  0  0  0
  3  8  1  0  0  0  0
  3 30  1  0  0  0  0
  5  9  1  0  0  0  0
  5 27  1  0  0  0  0
  5 31  1  1  0  0  0
  6  7  1  1  0  0  0
  6 11  1  0  0  0  0
  8 13  1  0  0  0  0
  9 10  1  1  0  0  0
  9 15  1  0  0  0  0
 11 12  1  1  0  0  0
 11 17  1  0  0  0  0
 13 14  1  6  0  0  0
 13 19  1  0  0  0  0
 15 16  1  6  0  0  0
 15 20  1  0  0  0  0
 16 34  1  0  0  0  0
 17 18  1  1  0  0  0
 17 22  1  0  0  0  0
 19  2  1  1  0  0  0
 19 24  1  0  0  0  0
 20 21  1  6  0  0  0
 20 26  1  0  0  0  0
 20 33  1  0  0  0  0
 22 23  1  6  0  0  0
 22 28  1  0  0  0  0
 24 25  1  6  0  0  0
 24 30  1  0  0  0  0
 26 27  1  0  0  0  0
 28 29  1  1  0  0  0
 28 32  1  0  0  0  0
 30 31  1  1  0  0  0
M  END
>  <CHROM.1>
174.97174650,-168.42731838,-104.49031687,44.85544616,77.11490968,-166.21595882
18.20596160,26.71631338,34.92216961,-1.59953070,-0.10085347,-2.77396910

>  <Name>
ligand

>  <RI>
0

>  <Rbt.Current_Directory>
/home/itssahil/PROJECTS/Mol_Feturizer/New_Systems/rnas/4p3s

>  <Rbt.Executable>
rbdock ($Id: //depot/dev/client3/rdock/2013.1/src/exe/rbdock.cxx#4 $)

>  <Rbt.Library>
libRbt.so (2013.1, Build901 2013/11/27)

>  <Rbt.Parameter_File>
/export/apps/rDock/src/rDock_2013.1_src/data/scripts/dock_solv.prm

>  <Rbt.Receptor>
prm/pocket_docking_8.prm

>  <SCORE>
-17.0389

>  <SCORE.INTER>
-11.7781

>  <SCORE.INTER.CONST>
1

>  <SCORE.INTER.POLAR>
0

>  <SCORE.INTER.ROT>
6

>  <SCORE.INTER.SOLV>
12.6536

>  <SCORE.INTER.VDW>
-19.6699

>  <SCORE.INTER.norm>
-0.346414

>  <SCORE.INTRA>
-5.26086

>  <SCORE.INTRA.DIHEDRAL>
-10.9301

>  <SCORE.INTRA.DIHEDRAL.0>
15.8194

>  <SCORE.INTRA.POLAR>
0

>  <SCORE.INTRA.POLAR.0>
0

>  <SCORE.INTRA.REPUL>
0

>  <SCORE.INTRA.REPUL.0>
0

>  <SCORE.INTRA.SOLV>
-0.283551

>  <SCORE.INTRA.SOLV.lig_0>
-71.9159

>  <SCORE.INTRA.VDW>
0.345955

>  <SCORE.INTRA.VDW.0>
-3.53918

>  <SCORE.INTRA.norm>
-0.154731

>  <SCORE.RESTR>
0

>  <SCORE.RESTR.CAVITY>
0

>  <SCORE.RESTR.norm>
0

>  <SCORE.SYSTEM>
0

>  <SCORE.SYSTEM.CONST>
0

>  <SCORE.SYSTEM.DIHEDRAL>
0

>  <SCORE.SYSTEM.SOLV>
0

>  <SCORE.SYSTEM.norm>
0

>  <SCORE.heavy>
34

>  <SCORE.norm>
-0.501145

>  <RMSD>
9.130

$$$$
ligand
 OpenBabel01301917533D
libRbt.so/2013.1/901 2013/11/27
 34 36  0  0  0  0  0  0  0  0999 V2000
   19.3841   29.0596   35.6842 C   0  0  2  0  0  0  0  0  0  0  0  0
   18.1345   28.5966   36.2062 O   0  0  0  0  0  0  0  0  0  0  0  0
   15.6278   25.2929   35.1090 C   0  0  2  0  0  0  0  0  0  0  0  0
   14.6798   24.4388   34.3807 N   0  0  0  0  0  0  0  0  0  0  0  0
   17.1470   23.3555   32.9405 C   0  0  2  0  0  0  0  0  0  0  0  0
   20.0869   29.9251   36.7966 C   0  0  2  0  0  0  0  0  0  0  0  0
   20.3046   29.1336   38.0181 N   0  0  0  0  0  0  0  0  0  0  0  0
   14.9342   26.6825   35.3477 C   0  0  0  0  0  0  0  0  0  0  0  0
   17.7262   21.9189   33.2506 C   0  0  2  0  0  0  0  0  0  0  0  0
   17.1760   21.4161   34.4560 O   0  0  0  0  0  0  0  0  0  0  0  0
   19.2285   31.1849   37.1209 C   0  0  1  0  0  0  0  0  0  0  0  0
   19.8674   31.9790   38.1376 O   0  0  0  0  0  0  0  0  0  0  0  0
   15.9401   27.5873   36.1425 C   0  0  2  0  0  0  0  0  0  0  0  0
   15.3479   28.9308   36.4006 N   0  0  0  0  0  0  0  0  0  0  0  0
   19.2925   22.0370   33.3727 C   0  0  1  0  0  0  0  0  0  0  0  0
   19.8949   20.7288   33.6994 N   0  0  0  0  0  0  0  0  0  0  0  0
   19.0266   31.9870   35.8140 C   0  0  2  0  0  0  0  0  0  0  0  0
   18.2498   33.1563   36.0924 O   0  0  0  0  0  0  0  0  0  0  0  0
   17.2696   27.7682   35.3495 C   0  0  2  0  0  0  0  0  0  0  0  0
   19.8682   22.5797   32.0265 C   0  0  1  0  0  0  0  0  0  0  0  0
   19.5593   21.6465   30.9964 O   0  0  0  0  0  0  0  0  0  0  0  0
   18.3124   31.0521   34.7454 C   0  0  2  0  0  0  0  0  0  0  0  0
   19.1258   29.8448   34.4795 O   0  0  0  0  0  0  0  0  0  0  0  0
   17.8922   26.3726   35.0733 C   0  0  2  0  0  0  0  0  0  0  0  0
   19.0884   26.5642   34.3210 O   0  0  0  0  0  0  0  0  0  0  0  0
   19.2042   23.9590   31.7131 C   0  0  0  0  0  0  0  0  0  0  0  0
   17.7261   23.8501   31.6761 O   0  0  0  0  0  0  0  0  0  0  0  0
   18.0683   31.7715   33.3877 C   0  0  2  0  0  0  0  0  0  0  0  0
   19.2430   32.5054   33.0248 O   0  0  0  0  0  0  0  0  0  0  0  0
   16.9451   25.4736   34.2406 C   0  0  1  0  0  0  0  0  0  0  0  0
   17.5986   24.1876   34.0567 O   0  0  0  0  0  0  0  0  0  0  0  0
   16.9149   32.7478   33.4577 C   0  0  0  0  0  0  0  0  0  0  0  0
   21.3882   22.7422   32.0717 C   0  0  0  0  0  0  0  0  0  0  0  0
   20.2714   20.7587   35.1341 C   0  0  0  0  0  0  0  0  0  0  0  0
  1  2  1  1  0  0  0
  1  6  1  0  0  0  0
  1 23  1  0  0  0  0
  3  4  1  6  0  0  0
  3  8  1  0  0  0  0
  3 30  1  0  0  0  0
  5  9  1  0  0  0  0
  5 27  1  0  0  0  0
  5 31  1  1  0  0  0
  6  7  1  1  0  0  0
  6 11  1  0  0  0  0
  8 13  1  0  0  0  0
  9 10  1  1  0  0  0
  9 15  1  0  0  0  0
 11 12  1  1  0  0  0
 11 17  1  0  0  0  0
 13 14  1  6  0  0  0
 13 19  1  0  0  0  0
 15 16  1  6  0  0  0
 15 20  1  0  0  0  0
 16 34  1  0  0  0  0
 17 18  1  1  0  0  0
 17 22  1  0  0  0  0
 19  2  1  1  0  0  0
 19 24  1  0  0  0  0
 20 21  1  6  0  0  0
 20 26  1  0  0  0  0
 20 33  1  0  0  0  0
 22 23  1  6  0  0  0
 22 28  1  0  0  0  0
 24 25  1  6  0  0  0
 24 30  1  0  0  0  0
 26 27  1  0  0  0  0
 28 29  1  1  0  0  0
 28 32  1  0  0  0  0
 30 31  1  1  0  0  0
M  END
>  <CHROM.1>
179.40740246,-173.28859257,-104.42008975,44.00516580,85.81845594,-164.46115219
18.27279659,26.81357456,34.53531641,-1.58826827,-0.27889180,-2.86991120

>  <Name>
ligand

>  <RI>
0

>  <Rbt.Current_Directory>
/home/itssahil/PROJECTS/Mol_Feturizer/New_Systems/rnas/4p3s

>  <Rbt.Executable>
rbdock ($Id: //depot/dev/client3/rdock/2013.1/src/exe/rbdock.cxx#4 $)

>  <Rbt.Library>
libRbt.so (2013.1, Build901 2013/11/27)

>  <Rbt.Parameter_File>
/export/apps/rDock/src/rDock_2013.1_src/data/scripts/dock_solv.prm

>  <Rbt.Receptor>
prm/pocket_docking_6.prm

>  <SCORE>
-17.3613

>  <SCORE.INTER>
-12.4499

>  <SCORE.INTER.CONST>
1

>  <SCORE.INTER.POLAR>
0

>  <SCORE.INTER.ROT>
6

>  <SCORE.INTER.SOLV>
12.5199

>  <SCORE.INTER.VDW>
-20.0732

>  <SCORE.INTER.norm>
-0.366174

>  <SCORE.INTRA>
-4.91139

>  <SCORE.INTRA.DIHEDRAL>
-9.7215

>  <SCORE.INTRA.DIHEDRAL.0>
15.8194

>  <SCORE.INTRA.POLAR>
0

>  <SCORE.INTRA.POLAR.0>
0

>  <SCORE.INTRA.REPUL>
0

>  <SCORE.INTRA.REPUL.0>
0

>  <SCORE.INTRA.SOLV>
-0.615215

>  <SCORE.INTRA.SOLV.lig_0>
-71.9159

>  <SCORE.INTRA.VDW>
0.256971

>  <SCORE.INTRA.VDW.0>
-3.53918

>  <SCORE.INTRA.norm>
-0.144453

>  <SCORE.RESTR>
0

>  <SCORE.RESTR.CAVITY>
0

>  <SCORE.RESTR.norm>
0

>  <SCORE.SYSTEM>
0

>  <SCORE.SYSTEM.CONST>
0

>  <SCORE.SYSTEM.DIHEDRAL>
0

>  <SCORE.SYSTEM.SOLV>
0

>  <SCORE.SYSTEM.norm>
0

>  <SCORE.heavy>
34

>  <SCORE.norm>
-0.510626

>  <RMSD>
9.133

$$$$
ligand
 OpenBabel01301917533D
libRbt.so/2013.1/901 2013/11/27
 34 36  0  0  0  0  0  0  0  0999 V2000
   18.8116   35.8531   28.6141 C   0  0  2  0  0  0  0  0  0  0  0  0
   20.0856   36.4731   28.8153 O   0  0  0  0  0  0  0  0  0  0  0  0
   22.1663   32.9321   30.0538 C   0  0  2  0  0  0  0  0  0  0  0  0
   23.2395   31.9894   30.3978 N   0  0  0  0  0  0  0  0  0  0  0  0
   22.6722   32.5077   32.9239 C   0  0  2  0  0  0  0  0  0  0  0  0
   17.7430   36.9909   28.4035 C   0  0  2  0  0  0  0  0  0  0  0  0
   18.0916   37.8307   27.2463 N   0  0  0  0  0  0  0  0  0  0  0  0
   22.4488   33.4708   28.6049 C   0  0  0  0  0  0  0  0  0  0  0  0
   21.8187   31.8849   34.0983 C   0  0  2  0  0  0  0  0  0  0  0  0
   20.5894   31.3845   33.6015 O   0  0  0  0  0  0  0  0  0  0  0  0
   17.6304   37.8678   29.6870 C   0  0  1  0  0  0  0  0  0  0  0  0
   16.6547   38.9094   29.4988 O   0  0  0  0  0  0  0  0  0  0  0  0
   21.2919   34.4627   28.2310 C   0  0  2  0  0  0  0  0  0  0  0  0
   21.4988   35.0203   26.8640 N   0  0  0  0  0  0  0  0  0  0  0  0
   21.5574   33.0128   35.1669 C   0  0  1  0  0  0  0  0  0  0  0  0
   20.7300   32.5028   36.2787 N   0  0  0  0  0  0  0  0  0  0  0  0
   17.2613   36.9487   30.8749 C   0  0  2  0  0  0  0  0  0  0  0  0
   17.1409   37.7372   32.0630 O   0  0  0  0  0  0  0  0  0  0  0  0
   21.2204   35.6410   29.2488 C   0  0  2  0  0  0  0  0  0  0  0  0
   22.9287   33.5325   35.7035 C   0  0  1  0  0  0  0  0  0  0  0  0
   23.6031   32.4503   36.3371 O   0  0  0  0  0  0  0  0  0  0  0  0
   18.3829   35.8327   31.0258 C   0  0  2  0  0  0  0  0  0  0  0  0
   18.4989   35.0359   29.7841 O   0  0  0  0  0  0  0  0  0  0  0  0
   21.0082   35.0688   30.6767 C   0  0  2  0  0  0  0  0  0  0  0  0
   20.9780   36.1632   31.5905 O   0  0  0  0  0  0  0  0  0  0  0  0
   23.7757   34.0573   34.4999 C   0  0  0  0  0  0  0  0  0  0  0  0
   23.9503   33.0095   33.4656 O   0  0  0  0  0  0  0  0  0  0  0  0
   18.0975   34.8506   32.1981 C   0  0  2  0  0  0  0  0  0  0  0  0
   18.8207   33.6341   31.9810 O   0  0  0  0  0  0  0  0  0  0  0  0
   22.1641   34.1284   31.0984 C   0  0  1  0  0  0  0  0  0  0  0  0
   21.8656   33.6243   32.4294 O   0  0  0  0  0  0  0  0  0  0  0  0
   16.6291   34.5037   32.3081 C   0  0  0  0  0  0  0  0  0  0  0  0
   22.7599   34.6484   36.7355 C   0  0  0  0  0  0  0  0  0  0  0  0
   19.3973   33.1457   36.1721 C   0  0  0  0  0  0  0  0  0  0  0  0
  1  2  1  1  0  0  0
  1  6  1  0  0  0  0
  1 23  1  0  0  0  0
  3  4  1  1  0  0  0
  3  8  1  0  0  0  0
  3 30  1  0  0  0  0
  5  9  1  0  0  0  0
  5 27  1  0  0  0  0
  5 31  1  1  0  0  0
  6  7  1  6  0  0  0
  6 11  1  0  0  0  0
  8 13  1  0  0  0  0
  9 10  1  6  0  0  0
  9 15  1  0  0  0  0
 11 12  1  6  0  0  0
 11 17  1  0  0  0  0
 13 14  1  6  0  0  0
 13 19  1  0  0  0  0
 15 16  1  1  0  0  0
 15 20  1  0  0  0  0
 16 34  1  0  0  0  0
 17 18  1  1  0  0  0
 17 22  1  0  0  0  0
 19  2  1  6  0  0  0
 19 24  1  0  0  0  0
 20 21  1  1  0  0  0
 20 26  1  0  0  0  0
 20 33  1  0  0  0  0
 22 23  1  6  0  0  0
 22 28  1  0  0  0  0
 24 25  1  1  0  0  0
 24 30  1  0  0  0  0
 26 27  1  0  0  0  0
 28 29  1  6  0  0  0
 28 32  1  0  0  0  0
 30 31  1  1  0  0  0
M  END
>  <CHROM.1>
170.34981375,52.87066158,-109.92262950,158.68346760,52.28207399,-160.83536839
20.44030083,34.62424071,31.70655055,-2.19765923,-0.55338764,1.80405491

>  <Name>
ligand

>  <RI>
0

>  <Rbt.Current_Directory>
/home/itssahil/PROJECTS/Mol_Feturizer/New_Systems/rnas/4p3s

>  <Rbt.Executable>
rbdock ($Id: //depot/dev/client3/rdock/2013.1/src/exe/rbdock.cxx#4 $)

>  <Rbt.Library>
libRbt.so (2013.1, Build901 2013/11/27)

>  <Rbt.Parameter_File>
/export/apps/rDock/src/rDock_2013.1_src/data/scripts/dock_solv.prm

>  <Rbt.Receptor>
prm/blind_docking_100.prm

>  <SCORE>
13.5513

>  <SCORE.INTER>
7.74886

>  <SCORE.INTER.CONST>
1

>  <SCORE.INTER.POLAR>
0

>  <SCORE.INTER.ROT>
6

>  <SCORE.INTER.SOLV>
14.3599

>  <SCORE.INTER.VDW>
-7.22073

>  <SCORE.INTER.norm>
0.227908

>  <SCORE.INTRA>
0.629529

>  <SCORE.INTRA.DIHEDRAL>
-10.4713

>  <SCORE.INTRA.DIHEDRAL.0>
15.8194

>  <SCORE.INTRA.POLAR>
0

>  <SCORE.INTRA.POLAR.0>
0

>  <SCORE.INTRA.REPUL>
0

>  <SCORE.INTRA.REPUL.0>
0

>  <SCORE.INTRA.SOLV>
2.00683

>  <SCORE.INTRA.SOLV.lig_0>
-71.9159

>  <SCORE.INTRA.VDW>
4.86176

>  <SCORE.INTRA.VDW.0>
-3.53918

>  <SCORE.INTRA.norm>
0.0185156

>  <SCORE.RESTR>
5.17293

>  <SCORE.RESTR.CAVITY>
5.17293

>  <SCORE.RESTR.norm>
0.152145

>  <SCORE.SYSTEM>
0

>  <SCORE.SYSTEM.CONST>
0

>  <SCORE.SYSTEM.DIHEDRAL>
0

>  <SCORE.SYSTEM.SOLV>
0

>  <SCORE.SYSTEM.norm>
0

>  <SCORE.heavy>
34

>  <SCORE.norm>
0.398568

>  <RMSD>
9.134

$$$$
ligand
 OpenBabel01301917533D
libRbt.so/2013.1/901 2013/11/27
 34 36  0  0  0  0  0  0  0  0999 V2000
   20.3721   31.6263   33.7985 C   0  0  2  0  0  0  0  0  0  0  0  0
   20.9661   30.3321   33.9412 O   0  0  0  0  0  0  0  0  0  0  0  0
   20.3932   26.6041   35.9847 C   0  0  2  0  0  0  0  0  0  0  0  0
   19.9251   25.5914   36.9408 N   0  0  0  0  0  0  0  0  0  0  0  0
   19.4873   25.4711   33.2435 C   0  0  2  0  0  0  0  0  0  0  0  0
   20.7157   32.1648   32.3588 C   0  0  2  0  0  0  0  0  0  0  0  0
   20.2082   31.2519   31.3220 N   0  0  0  0  0  0  0  0  0  0  0  0
   20.9943   27.7991   36.8093 C   0  0  0  0  0  0  0  0  0  0  0  0
   18.4878   24.7230   32.2757 C   0  0  2  0  0  0  0  0  0  0  0  0
   17.5554   25.6388   31.7274 O   0  0  0  0  0  0  0  0  0  0  0  0
   22.2561   32.3459   32.2053 C   0  0  1  0  0  0  0  0  0  0  0  0
   22.5747   32.8379   30.8905 O   0  0  0  0  0  0  0  0  0  0  0  0
   21.5114   28.8713   35.7871 C   0  0  2  0  0  0  0  0  0  0  0  0
   22.0927   30.0427   36.5029 N   0  0  0  0  0  0  0  0  0  0  0  0
   17.7392   23.6127   33.1058 C   0  0  1  0  0  0  0  0  0  0  0  0
   16.7592   22.8973   32.2639 N   0  0  0  0  0  0  0  0  0  0  0  0
   22.7460   33.3116   33.3096 C   0  0  2  0  0  0  0  0  0  0  0  0
   24.1584   33.5015   33.1788 O   0  0  0  0  0  0  0  0  0  0  0  0
   20.3532   29.3673   34.8696 C   0  0  2  0  0  0  0  0  0  0  0  0
   18.7911   22.6140   33.6839 C   0  0  1  0  0  0  0  0  0  0  0  0
   19.4671   21.9928   32.5955 O   0  0  0  0  0  0  0  0  0  0  0  0
   22.3675   32.7013   34.7274 C   0  0  2  0  0  0  0  0  0  0  0  0
   20.9052   32.5031   34.8385 O   0  0  0  0  0  0  0  0  0  0  0  0
   19.7394   28.1524   34.1220 C   0  0  2  0  0  0  0  0  0  0  0  0
   18.6640   28.6283   33.3153 O   0  0  0  0  0  0  0  0  0  0  0  0
   19.8112   23.4074   34.5622 C   0  0  0  0  0  0  0  0  0  0  0  0
   20.4534   24.4983   33.7904 O   0  0  0  0  0  0  0  0  0  0  0  0
   22.8173   33.6074   35.9094 C   0  0  2  0  0  0  0  0  0  0  0  0
   24.1130   34.1460   35.6244 O   0  0  0  0  0  0  0  0  0  0  0  0
   19.1681   27.1001   35.1041 C   0  0  1  0  0  0  0  0  0  0  0  0
   18.6428   25.9954   34.3177 O   0  0  0  0  0  0  0  0  0  0  0  0
   22.9091   32.8436   37.2120 C   0  0  0  0  0  0  0  0  0  0  0  0
   18.1420   21.5124   34.5229 C   0  0  0  0  0  0  0  0  0  0  0  0
   15.4379   23.0065   32.9296 C   0  0  0  0  0  0  0  0  0  0  0  0
  1  2  1  1  0  0  0
  1  6  1  0  0  0  0
  1 23  1  0  0  0  0
  3  4  1  1  0  0  0
  3  8  1  0  0  0  0
  3 30  1  0  0  0  0
  5  9  1  0  0  0  0
  5 27  1  0  0  0  0
  5 31  1  1  0  0  0
  6  7  1  6  0  0  0
  6 11  1  0  0  0  0
  8 13  1  0  0  0  0
  9 10  1  1  0  0  0
  9 15  1  0  0  0  0
 11 12  1  6  0  0  0
 11 17  1  0  0  0  0
 13 14  1  1  0  0  0
 13 19  1  0  0  0  0
 15 16  1  6  0  0  0
 15 20  1  0  0  0  0
 16 34  1  0  0  0  0
 17 18  1  1  0  0  0
 17 22  1  0  0  0  0
 19  2  1  6  0  0  0
 19 24  1  0  0  0  0
 20 21  1  6  0  0  0
 20 26  1  0  0  0  0
 20 33  1  0  0  0  0
 22 23  1  6  0  0  0
 22 28  1  0  0  0  0
 24 25  1  6  0  0  0
 24 30  1  0  0  0  0
 26 27  1  0  0  0  0
 28 29  1  6  0  0  0
 28 32  1  0  0  0  0
 30 31  1  6  0  0  0
M  END
>  <CHROM.1>
-152.93787893,-128.45734013,-124.19595156,-40.30282602,-68.39890282,-159.20788283
20.32254176,28.26541019,34.03294655,0.59549030,-1.04377322,-0.82495136

>  <Name>
ligand

>  <RI>
0

>  <Rbt.Current_Directory>
/home/itssahil/PROJECTS/Mol_Feturizer/New_Systems/rnas/4p3s

>  <Rbt.Executable>
rbdock ($Id: //depot/dev/client3/rdock/2013.1/src/exe/rbdock.cxx#4 $)

>  <Rbt.Library>
libRbt.so (2013.1, Build901 2013/11/27)

>  <Rbt.Parameter_File>
/export/apps/rDock/src/rDock_2013.1_src/data/scripts/dock_solv.prm

>  <Rbt.Receptor>
prm/blind_docking_80.prm

>  <SCORE>
3.05576

>  <SCORE.INTER>
-1.80498

>  <SCORE.INTER.CONST>
1

>  <SCORE.INTER.POLAR>
0

>  <SCORE.INTER.ROT>
6

>  <SCORE.INTER.SOLV>
18.785

>  <SCORE.INTER.VDW>
-15.065

>  <SCORE.INTER.norm>
-0.0530878

>  <SCORE.INTRA>
2.07232

>  <SCORE.INTRA.DIHEDRAL>
-1.04083

>  <SCORE.INTRA.DIHEDRAL.0>
15.8194

>  <SCORE.INTRA.POLAR>
0

>  <SCORE.INTRA.POLAR.0>
0

>  <SCORE.INTRA.REPUL>
0

>  <SCORE.INTRA.REPUL.0>
0

>  <SCORE.INTRA.SOLV>
3.73806

>  <SCORE.INTRA.SOLV.lig_0>
-71.9159

>  <SCORE.INTRA.VDW>
0.72371

>  <SCORE.INTRA.VDW.0>
-3.53918

>  <SCORE.INTRA.norm>
0.0609507

>  <SCORE.RESTR>
2.78842

>  <SCORE.RESTR.CAVITY>
2.78842

>  <SCORE.RESTR.norm>
0.0820122

>  <SCORE.SYSTEM>
0

>  <SCORE.SYSTEM.CONST>
0

>  <SCORE.SYSTEM.DIHEDRAL>
0

>  <SCORE.SYSTEM.SOLV>
0

>  <SCORE.SYSTEM.norm>
0

>  <SCORE.heavy>
34

>  <SCORE.norm>
0.0898752

>  <RMSD>
9.141

$$$$
ligand
 OpenBabel01301917533D
libRbt.so/2013.1/901 2013/11/27
 34 36  0  0  0  0  0  0  0  0999 V2000
   18.7039   29.8607   36.0315 C   0  0  2  0  0  0  0  0  0  0  0  0
   17.7809   28.8911   36.5377 O   0  0  0  0  0  0  0  0  0  0  0  0
   15.7989   25.4286   34.9612 C   0  0  2  0  0  0  0  0  0  0  0  0
   14.9566   24.5566   34.1313 N   0  0  0  0  0  0  0  0  0  0  0  0
   17.3365   24.0664   32.5414 C   0  0  2  0  0  0  0  0  0  0  0  0
   19.5592   30.3976   37.2401 C   0  0  2  0  0  0  0  0  0  0  0  0
   20.2823   29.2989   37.9005 N   0  0  0  0  0  0  0  0  0  0  0  0
   14.8983   26.6039   35.4874 C   0  0  0  0  0  0  0  0  0  0  0  0
   17.6717   22.5880   32.9856 C   0  0  2  0  0  0  0  0  0  0  0  0
   16.9795   22.2637   34.1790 O   0  0  0  0  0  0  0  0  0  0  0  0
   18.6415   31.1279   38.2666 C   0  0  1  0  0  0  0  0  0  0  0  0
   19.4194   31.6202   39.3733 O   0  0  0  0  0  0  0  0  0  0  0  0
   15.7941   27.5240   36.3894 C   0  0  2  0  0  0  0  0  0  0  0  0
   15.0026   28.6698   36.9212 N   0  0  0  0  0  0  0  0  0  0  0  0
   19.2275   22.4839   33.2112 C   0  0  1  0  0  0  0  0  0  0  0  0
   19.6040   21.1300   33.6652 N   0  0  0  0  0  0  0  0  0  0  0  0
   17.9046   32.2731   37.5334 C   0  0  2  0  0  0  0  0  0  0  0  0
   17.0644   32.9654   38.4623 O   0  0  0  0  0  0  0  0  0  0  0  0
   17.0056   28.0816   35.5827 C   0  0  2  0  0  0  0  0  0  0  0  0
   19.9594   22.8331   31.8768 C   0  0  1  0  0  0  0  0  0  0  0  0
   19.5760   21.8801   30.8908 O   0  0  0  0  0  0  0  0  0  0  0  0
   17.0644   31.6553   36.3341 C   0  0  2  0  0  0  0  0  0  0  0  0
   17.9493   30.9355   35.3912 O   0  0  0  0  0  0  0  0  0  0  0  0
   17.8343   26.8941   35.0219 C   0  0  2  0  0  0  0  0  0  0  0  0
   18.9163   27.4306   34.2634 O   0  0  0  0  0  0  0  0  0  0  0  0
   19.5321   24.2672   31.4269 C   0  0  0  0  0  0  0  0  0  0  0  0
   18.0595   24.3737   31.2917 O   0  0  0  0  0  0  0  0  0  0  0  0
   16.2865   32.7352   35.5284 C   0  0  2  0  0  0  0  0  0  0  0  0
   15.4684   33.4945   36.4252 O   0  0  0  0  0  0  0  0  0  0  0  0
   16.9924   25.9972   34.0812 C   0  0  1  0  0  0  0  0  0  0  0  0
   17.8402   24.9052   33.6299 O   0  0  0  0  0  0  0  0  0  0  0  0
   15.3824   32.1250   34.4801 C   0  0  0  0  0  0  0  0  0  0  0  0
   21.4809   22.7739   32.0196 C   0  0  0  0  0  0  0  0  0  0  0  0
   19.8399   21.2014   35.1281 C   0  0  0  0  0  0  0  0  0  0  0  0
  1  2  1  1  0  0  0
  1  6  1  0  0  0  0
  1 23  1  0  0  0  0
  3  4  1  6  0  0  0
  3  8  1  0  0  0  0
  3 30  1  0  0  0  0
  5  9  1  0  0  0  0
  5 27  1  0  0  0  0
  5 31  1  1  0  0  0
  6  7  1  1  0  0  0
  6 11  1  0  0  0  0
  8 13  1  0  0  0  0
  9 10  1  1  0  0  0
  9 15  1  0  0  0  0
 11 12  1  1  0  0  0
 11 17  1  0  0  0  0
 13 14  1  6  0  0  0
 13 19  1  0  0  0  0
 15 16  1  6  0  0  0
 15 20  1  0  0  0  0
 16 34  1  0  0  0  0
 17 18  1  1  0  0  0
 17 22  1  0  0  0  0
 19  2  1  1  0  0  0
 19 24  1  0  0  0  0
 20 21  1  6  0  0  0
 20 26  1  0  0  0  0
 20 33  1  0  0  0  0
 22 23  1  6  0  0  0
 22 28  1  0  0  0  0
 24 25  1  6  0  0  0
 24 30  1  0  0  0  0
 26 27  1  0  0  0  0
 28 29  1  1  0  0  0
 28 32  1  0  0  0  0
 30 31  1  1  0  0  0
M  END
>  <CHROM.1>
-170.56755466,-160.79004853,-102.19437437,-54.68459782,75.50426084,-136.44031165
17.82707980,27.17049711,34.97230190,-1.72766447,0.26114583,-2.65253200

>  <Name>
ligand

>  <RI>
0

>  <Rbt.Current_Directory>
/home/itssahil/PROJECTS/Mol_Feturizer/New_Systems/rnas/4p3s

>  <Rbt.Executable>
rbdock ($Id: //depot/dev/client3/rdock/2013.1/src/exe/rbdock.cxx#4 $)

>  <Rbt.Library>
libRbt.so (2013.1, Build901 2013/11/27)

>  <Rbt.Parameter_File>
/export/apps/rDock/src/rDock_2013.1_src/data/scripts/dock_solv.prm

>  <Rbt.Receptor>
prm/pocket_docking_5.prm

>  <SCORE>
-16.6032

>  <SCORE.INTER>
-14.2525

>  <SCORE.INTER.CONST>
1

>  <SCORE.INTER.POLAR>
0

>  <SCORE.INTER.ROT>
6

>  <SCORE.INTER.SOLV>
12.2497

>  <SCORE.INTER.VDW>
-21.1849

>  <SCORE.INTER.norm>
-0.419192

>  <SCORE.INTRA>
-2.35123

>  <SCORE.INTRA.DIHEDRAL>
-5.52513

>  <SCORE.INTRA.DIHEDRAL.0>
15.8194

>  <SCORE.INTRA.POLAR>
0

>  <SCORE.INTRA.POLAR.0>
0

>  <SCORE.INTRA.REPUL>
0

>  <SCORE.INTRA.REPUL.0>
0

>  <SCORE.INTRA.SOLV>
1.03684

>  <SCORE.INTRA.SOLV.lig_0>
-71.9159

>  <SCORE.INTRA.VDW>
-0.107087

>  <SCORE.INTRA.VDW.0>
-3.53918

>  <SCORE.INTRA.norm>
-0.0691539

>  <SCORE.RESTR>
0.000605182

>  <SCORE.RESTR.CAVITY>
0.000605182

>  <SCORE.RESTR.norm>
1.77995e-05

>  <SCORE.SYSTEM>
0

>  <SCORE.SYSTEM.CONST>
0

>  <SCORE.SYSTEM.DIHEDRAL>
0

>  <SCORE.SYSTEM.SOLV>
0

>  <SCORE.SYSTEM.norm>
0

>  <SCORE.heavy>
34

>  <SCORE.norm>
-0.488328

>  <RMSD>
9.143

$$$$
ligand
 OpenBabel01301917533D
libRbt.so/2013.1/901 2013/11/27
 34 36  0  0  0  0  0  0  0  0999 V2000
   19.2588   29.0788   36.0717 C   0  0  2  0  0  0  0  0  0  0  0  0
   18.0328   28.4847   36.5103 O   0  0  0  0  0  0  0  0  0  0  0  0
   15.6107   25.2641   35.0394 C   0  0  2  0  0  0  0  0  0  0  0  0
   14.7177   24.4594   34.1946 N   0  0  0  0  0  0  0  0  0  0  0  0
   17.1775   23.3826   32.9617 C   0  0  2  0  0  0  0  0  0  0  0  0
   19.9361   29.7728   37.3129 C   0  0  2  0  0  0  0  0  0  0  0  0
   20.1949   28.7967   38.3835 N   0  0  0  0  0  0  0  0  0  0  0  0
   14.9023   26.6405   35.3095 C   0  0  0  0  0  0  0  0  0  0  0  0
   17.7525   21.9429   33.2651 C   0  0  2  0  0  0  0  0  0  0  0  0
   17.2187   21.4457   34.4802 O   0  0  0  0  0  0  0  0  0  0  0  0
   19.0313   30.9245   37.8457 C   0  0  1  0  0  0  0  0  0  0  0  0
   19.6467   31.5616   38.9805 O   0  0  0  0  0  0  0  0  0  0  0  0
   15.8483   27.4916   36.2277 C   0  0  2  0  0  0  0  0  0  0  0  0
   15.2396   28.8203   36.5216 N   0  0  0  0  0  0  0  0  0  0  0  0
   19.3213   22.0512   33.3618 C   0  0  1  0  0  0  0  0  0  0  0  0
   19.9207   20.7399   33.6812 N   0  0  0  0  0  0  0  0  0  0  0  0
   18.7871   31.9260   36.6926 C   0  0  2  0  0  0  0  0  0  0  0  0
   17.9671   32.9996   37.1648 O   0  0  0  0  0  0  0  0  0  0  0  0
   17.2320   27.7128   35.5453 C   0  0  2  0  0  0  0  0  0  0  0  0
   19.8786   22.5879   32.0054 C   0  0  1  0  0  0  0  0  0  0  0  0
   19.5473   21.6547   30.9822 O   0  0  0  0  0  0  0  0  0  0  0  0
   18.1016   31.1559   35.4830 C   0  0  2  0  0  0  0  0  0  0  0  0
   18.9598   30.0442   35.0166 O   0  0  0  0  0  0  0  0  0  0  0  0
   17.8723   26.3331   35.2324 C   0  0  2  0  0  0  0  0  0  0  0  0
   19.1201   26.5632   34.5815 O   0  0  0  0  0  0  0  0  0  0  0  0
   19.2184   23.9708   31.7000 C   0  0  0  0  0  0  0  0  0  0  0  0
   17.7392   23.8711   31.6871 O   0  0  0  0  0  0  0  0  0  0  0  0
   17.8181   32.0827   34.2660 C   0  0  2  0  0  0  0  0  0  0  0  0
   16.9574   33.1507   34.6768 O   0  0  0  0  0  0  0  0  0  0  0  0
   16.9878   25.4898   34.2811 C   0  0  1  0  0  0  0  0  0  0  0  0
   17.6523   24.2138   34.0688 O   0  0  0  0  0  0  0  0  0  0  0  0
   17.1358   31.3467   33.1341 C   0  0  0  0  0  0  0  0  0  0  0  0
   21.4001   22.7408   32.0257 C   0  0  0  0  0  0  0  0  0  0  0  0
   20.2557   20.7446   35.1264 C   0  0  0  0  0  0  0  0  0  0  0  0
  1  2  1  1  0  0  0
  1  6  1  0  0  0  0
  1 23  1  0  0  0  0
  3  4  1  6  0  0  0
  3  8  1  0  0  0  0
  3 30  1  0  0  0  0
  5  9  1  0  0  0  0
  5 27  1  0  0  0  0
  5 31  1  1  0  0  0
  6  7  1  1  0  0  0
  6 11  1  0  0  0  0
  8 13  1  0  0  0  0
  9 10  1  1  0  0  0
  9 15  1  0  0  0  0
 11 12  1  1  0  0  0
 11 17  1  0  0  0  0
 13 14  1  6  0  0  0
 13 19  1  0  0  0  0
 15 16  1  6  0  0  0
 15 20  1  0  0  0  0
 16 34  1  0  0  0  0
 17 18  1  1  0  0  0
 17 22  1  0  0  0  0
 19  2  1  1  0  0  0
 19 24  1  0  0  0  0
 20 21  1  6  0  0  0
 20 26  1  0  0  0  0
 20 33  1  0  0  0  0
 22 23  1  6  0  0  0
 22 28  1  0  0  0  0
 24 25  1  6  0  0  0
 24 30  1  0  0  0  0
 26 27  1  0  0  0  0
 28 29  1  1  0  0  0
 28 32  1  0  0  0  0
 30 31  1  1  0  0  0
M  END
>  <CHROM.1>
-177.16125169,-167.46268524,-101.52417247,-59.10333252,79.08555705,-162.97921231
18.14530325,26.76006953,34.80812556,-1.63449321,0.29225148,-2.76247613

>  <Name>
ligand

>  <RI>
0

>  <Rbt.Current_Directory>
/home/itssahil/PROJECTS/Mol_Feturizer/New_Systems/rnas/4p3s

>  <Rbt.Executable>
rbdock ($Id: //depot/dev/client3/rdock/2013.1/src/exe/rbdock.cxx#4 $)

>  <Rbt.Library>
libRbt.so (2013.1, Build901 2013/11/27)

>  <Rbt.Parameter_File>
/export/apps/rDock/src/rDock_2013.1_src/data/scripts/dock_solv.prm

>  <Rbt.Receptor>
prm/pocket_docking_7.prm

>  <SCORE>
-18.1611

>  <SCORE.INTER>
-12.5503

>  <SCORE.INTER.CONST>
1

>  <SCORE.INTER.POLAR>
0

>  <SCORE.INTER.ROT>
6

>  <SCORE.INTER.SOLV>
12.7266

>  <SCORE.INTER.VDW>
-20.2091

>  <SCORE.INTER.norm>
-0.369126

>  <SCORE.INTRA>
-5.6108

>  <SCORE.INTRA.DIHEDRAL>
-11.0198

>  <SCORE.INTRA.DIHEDRAL.0>
15.8194

>  <SCORE.INTRA.POLAR>
0

>  <SCORE.INTRA.POLAR.0>
0

>  <SCORE.INTRA.REPUL>
0

>  <SCORE.INTRA.REPUL.0>
0

>  <SCORE.INTRA.SOLV>
-0.342376

>  <SCORE.INTRA.SOLV.lig_0>
-71.9159

>  <SCORE.INTRA.VDW>
0.070292

>  <SCORE.INTRA.VDW.0>
-3.53918

>  <SCORE.INTRA.norm>
-0.165024

>  <SCORE.RESTR>
0

>  <SCORE.RESTR.CAVITY>
0

>  <SCORE.RESTR.norm>
0

>  <SCORE.SYSTEM>
0

>  <SCORE.SYSTEM.CONST>
0

>  <SCORE.SYSTEM.DIHEDRAL>
0

>  <SCORE.SYSTEM.SOLV>
0

>  <SCORE.SYSTEM.norm>
0

>  <SCORE.heavy>
34

>  <SCORE.norm>
-0.53415

>  <RMSD>
9.144

$$$$
ligand
 OpenBabel01301917533D
libRbt.so/2013.1/901 2013/11/27
 34 36  0  0  0  0  0  0  0  0999 V2000
   17.8769   30.4039   35.3003 C   0  0  2  0  0  0  0  0  0  0  0  0
   17.3458   29.2481   35.9563 O   0  0  0  0  0  0  0  0  0  0  0  0
   15.8222   25.3920   34.8559 C   0  0  2  0  0  0  0  0  0  0  0  0
   15.0551   24.3294   34.1917 N   0  0  0  0  0  0  0  0  0  0  0  0
   17.2981   24.1070   32.3504 C   0  0  2  0  0  0  0  0  0  0  0  0
   18.8224   31.1497   36.3154 C   0  0  2  0  0  0  0  0  0  0  0  0
   19.9133   30.2682   36.7614 N   0  0  0  0  0  0  0  0  0  0  0  0
   14.7977   26.4456   35.4120 C   0  0  0  0  0  0  0  0  0  0  0  0
   17.6498   22.7105   32.9995 C   0  0  2  0  0  0  0  0  0  0  0  0
   16.9392   22.5391   34.2137 O   0  0  0  0  0  0  0  0  0  0  0  0
   18.0045   31.6526   37.5431 C   0  0  1  0  0  0  0  0  0  0  0  0
   18.8651   32.3349   38.4737 O   0  0  0  0  0  0  0  0  0  0  0  0
   15.6168   27.5701   36.1380 C   0  0  2  0  0  0  0  0  0  0  0  0
   14.7046   28.6129   36.6883 N   0  0  0  0  0  0  0  0  0  0  0  0
   19.2022   22.6695   33.2649 C   0  0  1  0  0  0  0  0  0  0  0  0
   19.5929   21.3984   33.9072 N   0  0  0  0  0  0  0  0  0  0  0  0
   16.8735   32.5748   37.0309 C   0  0  2  0  0  0  0  0  0  0  0  0
   16.1165   33.0580   38.1452 O   0  0  0  0  0  0  0  0  0  0  0  0
   16.6200   28.2475   35.1562 C   0  0  2  0  0  0  0  0  0  0  0  0
   19.9549   22.8470   31.9083 C   0  0  1  0  0  0  0  0  0  0  0  0
   19.6083   21.7604   31.0560 O   0  0  0  0  0  0  0  0  0  0  0  0
   15.9636   31.7543   36.0185 C   0  0  2  0  0  0  0  0  0  0  0  0
   16.7663   31.2550   34.8799 O   0  0  0  0  0  0  0  0  0  0  0  0
   17.5726   27.1674   34.5753 C   0  0  2  0  0  0  0  0  0  0  0  0
   18.4578   27.8070   33.6583 O   0  0  0  0  0  0  0  0  0  0  0  0
   19.5120   24.1971   31.2581 C   0  0  0  0  0  0  0  0  0  0  0  0
   18.0409   24.2546   31.0834 O   0  0  0  0  0  0  0  0  0  0  0  0
   14.7935   32.6022   35.4419 C   0  0  2  0  0  0  0  0  0  0  0  0
   14.0845   31.8275   34.4687 O   0  0  0  0  0  0  0  0  0  0  0  0
   16.7980   26.0711   33.8029 C   0  0  1  0  0  0  0  0  0  0  0  0
   17.7648   25.0970   33.3221 O   0  0  0  0  0  0  0  0  0  0  0  0
   15.2818   33.8635   34.7642 C   0  0  0  0  0  0  0  0  0  0  0  0
   21.4740   22.8384   32.0849 C   0  0  0  0  0  0  0  0  0  0  0  0
   19.6411   21.6365   35.3707 C   0  0  0  0  0  0  0  0  0  0  0  0
  1  2  1  1  0  0  0
  1  6  1  0  0  0  0
  1 23  1  0  0  0  0
  3  4  1  6  0  0  0
  3  8  1  0  0  0  0
  3 30  1  0  0  0  0
  5  9  1  0  0  0  0
  5 27  1  0  0  0  0
  5 31  1  1  0  0  0
  6  7  1  1  0  0  0
  6 11  1  0  0  0  0
  8 13  1  0  0  0  0
  9 10  1  1  0  0  0
  9 15  1  0  0  0  0
 11 12  1  1  0  0  0
 11 17  1  0  0  0  0
 13 14  1  6  0  0  0
 13 19  1  0  0  0  0
 15 16  1  6  0  0  0
 15 20  1  0  0  0  0
 16 34  1  0  0  0  0
 17 18  1  1  0  0  0
 17 22  1  0  0  0  0
 19  2  1  1  0  0  0
 19 24  1  0  0  0  0
 20 21  1  6  0  0  0
 20 26  1  0  0  0  0
 20 33  1  0  0  0  0
 22 23  1  6  0  0  0
 22 28  1  0  0  0  0
 24 25  1  6  0  0  0
 24 30  1  0  0  0  0
 26 27  1  0  0  0  0
 28 29  1  6  0  0  0
 28 32  1  0  0  0  0
 30 31  1  1  0  0  0
M  END
>  <CHROM.1>
-169.34472145,-152.52708023,-95.61787919,175.72666594,75.97687621,-124.58360878
17.44353954,27.35506344,34.64939207,-1.80251047,0.10590487,-2.73738318

>  <Name>
ligand

>  <RI>
0

>  <Rbt.Current_Directory>
/home/itssahil/PROJECTS/Mol_Feturizer/New_Systems/rnas/4p3s

>  <Rbt.Executable>
rbdock ($Id: //depot/dev/client3/rdock/2013.1/src/exe/rbdock.cxx#4 $)

>  <Rbt.Library>
libRbt.so (2013.1, Build901 2013/11/27)

>  <Rbt.Parameter_File>
/export/apps/rDock/src/rDock_2013.1_src/data/scripts/dock_solv.prm

>  <Rbt.Receptor>
prm/pocket_docking_6.prm

>  <SCORE>
-17.5098

>  <SCORE.INTER>
-17.5594

>  <SCORE.INTER.CONST>
1

>  <SCORE.INTER.POLAR>
0

>  <SCORE.INTER.ROT>
6

>  <SCORE.INTER.SOLV>
15.4402

>  <SCORE.INTER.VDW>
-24.453

>  <SCORE.INTER.norm>
-0.516453

>  <SCORE.INTRA>
0.049574

>  <SCORE.INTRA.DIHEDRAL>
-2.98913

>  <SCORE.INTRA.DIHEDRAL.0>
15.8194

>  <SCORE.INTRA.POLAR>
0

>  <SCORE.INTRA.POLAR.0>
0

>  <SCORE.INTRA.REPUL>
0

>  <SCORE.INTRA.REPUL.0>
0

>  <SCORE.INTRA.SOLV>
1.79306

>  <SCORE.INTRA.SOLV.lig_0>
-71.9159

>  <SCORE.INTRA.VDW>
0.647608

>  <SCORE.INTRA.VDW.0>
-3.53918

>  <SCORE.INTRA.norm>
0.00145806

>  <SCORE.RESTR>
0

>  <SCORE.RESTR.CAVITY>
0

>  <SCORE.RESTR.norm>
0

>  <SCORE.SYSTEM>
0

>  <SCORE.SYSTEM.CONST>
0

>  <SCORE.SYSTEM.DIHEDRAL>
0

>  <SCORE.SYSTEM.SOLV>
0

>  <SCORE.SYSTEM.norm>
0

>  <SCORE.heavy>
34

>  <SCORE.norm>
-0.514995

>  <RMSD>
9.147

$$$$
ligand
 OpenBabel01301917533D
libRbt.so/2013.1/901 2013/11/27
 34 36  0  0  0  0  0  0  0  0999 V2000
   21.3602   27.5965   37.3708 C   0  0  2  0  0  0  0  0  0  0  0  0
   19.9858   27.8016   37.7128 O   0  0  0  0  0  0  0  0  0  0  0  0
   16.3815   26.5959   35.7233 C   0  0  2  0  0  0  0  0  0  0  0  0
   15.2637   26.5334   34.7719 N   0  0  0  0  0  0  0  0  0  0  0  0
   16.9930   24.6469   33.2026 C   0  0  2  0  0  0  0  0  0  0  0  0
   22.1970   27.5745   38.7050 C   0  0  2  0  0  0  0  0  0  0  0  0
   21.7278   26.5055   39.6012 N   0  0  0  0  0  0  0  0  0  0  0  0
   16.4393   28.0571   36.2984 C   0  0  0  0  0  0  0  0  0  0  0  0
   17.0359   23.0807   33.0018 C   0  0  2  0  0  0  0  0  0  0  0  0
   16.3252   22.4315   34.0420 O   0  0  0  0  0  0  0  0  0  0  0  0
   22.1024   28.9548   39.4225 C   0  0  1  0  0  0  0  0  0  0  0  0
   22.8658   28.9390   40.6429 O   0  0  0  0  0  0  0  0  0  0  0  0
   17.6212   28.1176   37.3288 C   0  0  2  0  0  0  0  0  0  0  0  0
   17.7397   29.4839   37.9132 N   0  0  0  0  0  0  0  0  0  0  0  0
   18.5445   22.6265   33.0051 C   0  0  1  0  0  0  0  0  0  0  0  0
   18.6532   21.1611   32.8572 N   0  0  0  0  0  0  0  0  0  0  0  0
   22.6059   30.0460   38.4490 C   0  0  2  0  0  0  0  0  0  0  0  0
   22.5387   31.3220   39.0936 O   0  0  0  0  0  0  0  0  0  0  0  0
   18.9719   27.7442   36.6464 C   0  0  2  0  0  0  0  0  0  0  0  0
   19.2953   23.3477   31.8413 C   0  0  1  0  0  0  0  0  0  0  0  0
   18.7016   22.9514   30.6092 O   0  0  0  0  0  0  0  0  0  0  0  0
   21.7147   30.0086   37.1336 C   0  0  2  0  0  0  0  0  0  0  0  0
   21.7894   28.6789   36.4883 O   0  0  0  0  0  0  0  0  0  0  0  0
   18.8564   26.3228   36.0317 C   0  0  2  0  0  0  0  0  0  0  0  0
   20.0920   26.0189   35.3879 O   0  0  0  0  0  0  0  0  0  0  0  0
   19.1531   24.8923   32.0293 C   0  0  0  0  0  0  0  0  0  0  0  0
   17.7289   25.2981   32.1011 O   0  0  0  0  0  0  0  0  0  0  0  0
   22.1487   31.0728   36.0850 C   0  0  2  0  0  0  0  0  0  0  0  0
   23.5769   31.0805   35.9841 O   0  0  0  0  0  0  0  0  0  0  0  0
   17.7336   26.2445   34.9679 C   0  0  1  0  0  0  0  0  0  0  0  0
   17.6842   24.8785   34.4716 O   0  0  0  0  0  0  0  0  0  0  0  0
   21.7035   32.4670   36.4681 C   0  0  0  0  0  0  0  0  0  0  0  0
   20.7771   22.9729   31.7896 C   0  0  0  0  0  0  0  0  0  0  0  0
   19.0229   20.6069   34.1827 C   0  0  0  0  0  0  0  0  0  0  0  0
  1  2  1  1  0  0  0
  1  6  1  0  0  0  0
  1 23  1  0  0  0  0
  3  4  1  6  0  0  0
  3  8  1  0  0  0  0
  3 30  1  0  0  0  0
  5  9  1  0  0  0  0
  5 27  1  0  0  0  0
  5 31  1  1  0  0  0
  6  7  1  1  0  0  0
  6 11  1  0  0  0  0
  8 13  1  0  0  0  0
  9 10  1  1  0  0  0
  9 15  1  0  0  0  0
 11 12  1  1  0  0  0
 11 17  1  0  0  0  0
 13 14  1  6  0  0  0
 13 19  1  0  0  0  0
 15 16  1  6  0  0  0
 15 20  1  0  0  0  0
 16 34  1  0  0  0  0
 17 18  1  1  0  0  0
 17 22  1  0  0  0  0
 19  2  1  1  0  0  0
 19 24  1  0  0  0  0
 20 21  1  6  0  0  0
 20 26  1  0  0  0  0
 20 33  1  0  0  0  0
 22 23  1  6  0  0  0
 22 28  1  0  0  0  0
 24 25  1  6  0  0  0
 24 30  1  0  0  0  0
 26 27  1  0  0  0  0
 28 29  1  1  0  0  0
 28 32  1  0  0  0  0
 30 31  1  1  0  0  0
M  END
>  <CHROM.1>
-174.68344770,-175.60595009,-105.71284577,43.87611801,82.29478266,-176.37445003
19.59795840,26.65074414,35.61841723,-1.14435771,0.01872503,-2.48441852

>  <Name>
ligand

>  <RI>
0

>  <Rbt.Current_Directory>
/home/itssahil/PROJECTS/Mol_Feturizer/New_Systems/rnas/4p3s

>  <Rbt.Executable>
rbdock ($Id: //depot/dev/client3/rdock/2013.1/src/exe/rbdock.cxx#4 $)

>  <Rbt.Library>
libRbt.so (2013.1, Build901 2013/11/27)

>  <Rbt.Parameter_File>
/export/apps/rDock/src/rDock_2013.1_src/data/scripts/dock_solv.prm

>  <Rbt.Receptor>
prm/pocket_docking_5.prm

>  <SCORE>
-14.1191

>  <SCORE.INTER>
-8.35938

>  <SCORE.INTER.CONST>
1

>  <SCORE.INTER.POLAR>
0

>  <SCORE.INTER.ROT>
6

>  <SCORE.INTER.SOLV>
15.8041

>  <SCORE.INTER.VDW>
-18.441

>  <SCORE.INTER.norm>
-0.245864

>  <SCORE.INTRA>
-5.75976

>  <SCORE.INTRA.DIHEDRAL>
-11.3422

>  <SCORE.INTRA.DIHEDRAL.0>
15.8194

>  <SCORE.INTRA.POLAR>
0

>  <SCORE.INTRA.POLAR.0>
0

>  <SCORE.INTRA.REPUL>
0

>  <SCORE.INTRA.REPUL.0>
0

>  <SCORE.INTRA.SOLV>
-0.864828

>  <SCORE.INTRA.SOLV.lig_0>
-71.9159

>  <SCORE.INTRA.VDW>
0.343763

>  <SCORE.INTRA.VDW.0>
-3.53918

>  <SCORE.INTRA.norm>
-0.169405

>  <SCORE.RESTR>
0

>  <SCORE.RESTR.CAVITY>
0

>  <SCORE.RESTR.norm>
0

>  <SCORE.SYSTEM>
0

>  <SCORE.SYSTEM.CONST>
0

>  <SCORE.SYSTEM.DIHEDRAL>
0

>  <SCORE.SYSTEM.SOLV>
0

>  <SCORE.SYSTEM.norm>
0

>  <SCORE.heavy>
34

>  <SCORE.norm>
-0.415269

>  <RMSD>
9.150

$$$$
ligand
 OpenBabel01301917533D
libRbt.so/2013.1/901 2013/11/27
 34 36  0  0  0  0  0  0  0  0999 V2000
   17.2570   27.7339   33.7851 C   0  0  2  0  0  0  0  0  0  0  0  0
   18.5233   27.3388   34.3222 O   0  0  0  0  0  0  0  0  0  0  0  0
   19.4534   23.8650   31.9834 C   0  0  2  0  0  0  0  0  0  0  0  0
   20.1629   22.9060   31.1258 N   0  0  0  0  0  0  0  0  0  0  0  0
   18.8442   22.1287   34.3654 C   0  0  2  0  0  0  0  0  0  0  0  0
   16.4877   28.5445   34.8949 C   0  0  2  0  0  0  0  0  0  0  0  0
   17.2586   29.7273   35.3104 N   0  0  0  0  0  0  0  0  0  0  0  0
   19.4563   25.2553   31.2511 C   0  0  0  0  0  0  0  0  0  0  0  0
   19.1224   21.0076   35.4430 C   0  0  2  0  0  0  0  0  0  0  0  0
   19.6609   21.5809   36.6219 O   0  0  0  0  0  0  0  0  0  0  0  0
   16.2010   27.6327   36.1260 C   0  0  1  0  0  0  0  0  0  0  0  0
   15.4980   28.3698   37.1432 O   0  0  0  0  0  0  0  0  0  0  0  0
   18.6816   26.2741   32.1590 C   0  0  2  0  0  0  0  0  0  0  0  0
   18.6497   27.6235   31.5261 N   0  0  0  0  0  0  0  0  0  0  0  0
   20.1383   19.9740   34.8251 C   0  0  1  0  0  0  0  0  0  0  0  0
   20.4697   18.9150   35.7996 N   0  0  0  0  0  0  0  0  0  0  0  0
   15.3893   26.4067   35.6464 C   0  0  2  0  0  0  0  0  0  0  0  0
   15.1045   25.5612   36.7654 O   0  0  0  0  0  0  0  0  0  0  0  0
   19.3544   26.3920   33.5600 C   0  0  2  0  0  0  0  0  0  0  0  0
   19.5108   19.3515   33.5379 C   0  0  1  0  0  0  0  0  0  0  0  0
   18.3223   18.6593   33.9064 O   0  0  0  0  0  0  0  0  0  0  0  0
   16.2281   25.6411   34.5345 C   0  0  2  0  0  0  0  0  0  0  0  0
   16.5208   26.5347   33.3918 O   0  0  0  0  0  0  0  0  0  0  0  0
   19.3949   24.9895   34.2255 C   0  0  2  0  0  0  0  0  0  0  0  0
   20.0421   25.1195   35.4896 O   0  0  0  0  0  0  0  0  0  0  0  0
   19.1696   20.5009   32.5359 C   0  0  0  0  0  0  0  0  0  0  0  0
   18.2735   21.5072   33.1543 O   0  0  0  0  0  0  0  0  0  0  0  0
   15.4892   24.3880   33.9831 C   0  0  2  0  0  0  0  0  0  0  0  0
   15.2925   23.4501   35.0470 O   0  0  0  0  0  0  0  0  0  0  0  0
   20.2018   23.9734   33.3800 C   0  0  1  0  0  0  0  0  0  0  0  0
   20.1615   22.6916   34.0655 O   0  0  0  0  0  0  0  0  0  0  0  0
   16.2761   23.6943   32.8931 C   0  0  0  0  0  0  0  0  0  0  0  0
   20.4484   18.3479   32.8651 C   0  0  0  0  0  0  0  0  0  0  0  0
   21.8761   18.5110   35.5557 C   0  0  0  0  0  0  0  0  0  0  0  0
  1  2  1  1  0  0  0
  1  6  1  0  0  0  0
  1 23  1  0  0  0  0
  3  4  1  6  0  0  0
  3  8  1  0  0  0  0
  3 30  1  0  0  0  0
  5  9  1  0  0  0  0
  5 27  1  0  0  0  0
  5 31  1  6  0  0  0
  6  7  1  1  0  0  0
  6 11  1  0  0  0  0
  8 13  1  0  0  0  0
  9 10  1  1  0  0  0
  9 15  1  0  0  0  0
 11 12  1  1  0  0  0
 11 17  1  0  0  0  0
 13 14  1  6  0  0  0
 13 19  1  0  0  0  0
 15 16  1  1  0  0  0
 15 20  1  0  0  0  0
 16 34  1  0  0  0  0
 17 18  1  1  0  0  0
 17 22  1  0  0  0  0
 19  2  1  1  0  0  0
 19 24  1  0  0  0  0
 20 21  1  1  0  0  0
 20 26  1  0  0  0  0
 20 33  1  0  0  0  0
 22 23  1  6  0  0  0
 22 28  1  0  0  0  0
 24 25  1  1  0  0  0
 24 30  1  0  0  0  0
 26 27  1  0  0  0  0
 28 29  1  1  0  0  0
 28 32  1  0  0  0  0
 30 31  1  1  0  0  0
M  END
>  <CHROM.1>
170.73401616,10.58003871,-147.00891394,-62.39580746,-59.18695679,-163.99009635
18.30883600,23.93099232,34.18637700,-2.20340176,-0.85880292,2.71786112

>  <Name>
ligand

>  <RI>
0

>  <Rbt.Current_Directory>
/home/itssahil/PROJECTS/Mol_Feturizer/New_Systems/rnas/4p3s

>  <Rbt.Executable>
rbdock ($Id: //depot/dev/client3/rdock/2013.1/src/exe/rbdock.cxx#4 $)

>  <Rbt.Library>
libRbt.so (2013.1, Build901 2013/11/27)

>  <Rbt.Parameter_File>
/export/apps/rDock/src/rDock_2013.1_src/data/scripts/dock_solv.prm

>  <Rbt.Receptor>
prm/blind_docking_60.prm

>  <SCORE>
16.6548

>  <SCORE.INTER>
4.77444

>  <SCORE.INTER.CONST>
1

>  <SCORE.INTER.POLAR>
0

>  <SCORE.INTER.ROT>
6

>  <SCORE.INTER.SOLV>
27.9495

>  <SCORE.INTER.VDW>
-13.7336

>  <SCORE.INTER.norm>
0.140425

>  <SCORE.INTRA>
5.77554

>  <SCORE.INTRA.DIHEDRAL>
-6.73612

>  <SCORE.INTRA.DIHEDRAL.0>
15.8194

>  <SCORE.INTRA.POLAR>
0

>  <SCORE.INTRA.POLAR.0>
0

>  <SCORE.INTRA.REPUL>
0

>  <SCORE.INTRA.REPUL.0>
0

>  <SCORE.INTRA.SOLV>
2.91426

>  <SCORE.INTRA.SOLV.lig_0>
-71.9159

>  <SCORE.INTRA.VDW>
7.68647

>  <SCORE.INTRA.VDW.0>
-3.53918

>  <SCORE.INTRA.norm>
0.169869

>  <SCORE.RESTR>
6.10478

>  <SCORE.RESTR.CAVITY>
6.10478

>  <SCORE.RESTR.norm>
0.179552

>  <SCORE.SYSTEM>
0

>  <SCORE.SYSTEM.CONST>
0

>  <SCORE.SYSTEM.DIHEDRAL>
0

>  <SCORE.SYSTEM.SOLV>
0

>  <SCORE.SYSTEM.norm>
0

>  <SCORE.heavy>
34

>  <SCORE.norm>
0.489846

>  <RMSD>
9.157

$$$$
ligand
 OpenBabel01301917533D
libRbt.so/2013.1/901 2013/11/27
 34 36  0  0  0  0  0  0  0  0999 V2000
   21.6455   27.6340   37.0920 C   0  0  2  0  0  0  0  0  0  0  0  0
   20.3164   27.8092   37.5930 O   0  0  0  0  0  0  0  0  0  0  0  0
   16.4925   26.7306   35.9754 C   0  0  2  0  0  0  0  0  0  0  0  0
   15.2771   26.7173   35.1501 N   0  0  0  0  0  0  0  0  0  0  0  0
   16.9296   24.8688   33.2581 C   0  0  2  0  0  0  0  0  0  0  0  0
   22.6007   27.3846   38.3192 C   0  0  2  0  0  0  0  0  0  0  0  0
   22.1797   26.1965   39.0790 N   0  0  0  0  0  0  0  0  0  0  0  0
   16.6439   28.1725   36.5813 C   0  0  0  0  0  0  0  0  0  0  0  0
   16.8919   23.3086   33.0137 C   0  0  2  0  0  0  0  0  0  0  0  0
   16.1333   22.6699   34.0262 O   0  0  0  0  0  0  0  0  0  0  0  0
   22.6205   28.6354   39.2488 C   0  0  1  0  0  0  0  0  0  0  0  0
   23.4924   28.4116   40.3722 O   0  0  0  0  0  0  0  0  0  0  0  0
   17.9316   28.1802   37.4780 C   0  0  2  0  0  0  0  0  0  0  0  0
   18.1422   29.5259   38.0839 N   0  0  0  0  0  0  0  0  0  0  0  0
   18.3741   22.7743   33.0228 C   0  0  1  0  0  0  0  0  0  0  0  0
   18.4067   21.3099   32.8348 N   0  0  0  0  0  0  0  0  0  0  0  0
   23.0694   29.8570   38.4132 C   0  0  2  0  0  0  0  0  0  0  0  0
   23.1061   31.0158   39.2522 O   0  0  0  0  0  0  0  0  0  0  0  0
   19.1919   27.8026   36.6424 C   0  0  2  0  0  0  0  0  0  0  0  0
   19.1782   23.4862   31.8893 C   0  0  1  0  0  0  0  0  0  0  0  0
   18.5815   23.1565   30.6392 O   0  0  0  0  0  0  0  0  0  0  0  0
   22.0597   30.0459   37.2004 C   0  0  2  0  0  0  0  0  0  0  0  0
   22.0285   28.8339   36.3516 O   0  0  0  0  0  0  0  0  0  0  0  0
   18.9798   26.4027   36.0045 C   0  0  2  0  0  0  0  0  0  0  0  0
   20.1315   26.0956   35.2216 O   0  0  0  0  0  0  0  0  0  0  0  0
   19.1158   25.0304   32.1192 C   0  0  0  0  0  0  0  0  0  0  0  0
   17.7144   25.5098   32.1848 O   0  0  0  0  0  0  0  0  0  0  0  0
   22.4314   31.2540   36.2935 C   0  0  2  0  0  0  0  0  0  0  0  0
   23.8308   31.2061   35.9940 O   0  0  0  0  0  0  0  0  0  0  0  0
   17.7469   26.3772   35.0676 C   0  0  1  0  0  0  0  0  0  0  0  0
   17.6145   25.0278   34.5418 O   0  0  0  0  0  0  0  0  0  0  0  0
   22.1458   32.5802   36.9630 C   0  0  0  0  0  0  0  0  0  0  0  0
   20.6386   23.0342   31.8454 C   0  0  0  0  0  0  0  0  0  0  0  0
   18.8737   20.7088   34.1081 C   0  0  0  0  0  0  0  0  0  0  0  0
  1  2  1  1  0  0  0
  1  6  1  0  0  0  0
  1 23  1  0  0  0  0
  3  4  1  6  0  0  0
  3  8  1  0  0  0  0
  3 30  1  0  0  0  0
  5  9  1  0  0  0  0
  5 27  1  0  0  0  0
  5 31  1  1  0  0  0
  6  7  1  1  0  0  0
  6 11  1  0  0  0  0
  8 13  1  0  0  0  0
  9 10  1  1  0  0  0
  9 15  1  0  0  0  0
 11 12  1  1  0  0  0
 11 17  1  0  0  0  0
 13 14  1  6  0  0  0
 13 19  1  0  0  0  0
 15 16  1  6  0  0  0
 15 20  1  0  0  0  0
 16 34  1  0  0  0  0
 17 18  1  1  0  0  0
 17 22  1  0  0  0  0
 19  2  1  1  0  0  0
 19 24  1  0  0  0  0
 20 21  1  6  0  0  0
 20 26  1  0  0  0  0
 20 33  1  0  0  0  0
 22 23  1  6  0  0  0
 22 28  1  0  0  0  0
 24 25  1  6  0  0  0
 24 30  1  0  0  0  0
 26 27  1  0  0  0  0
 28 29  1  1  0  0  0
 28 32  1  0  0  0  0
 30 31  1  1  0  0  0
M  END
>  <CHROM.1>
-168.47081740,-173.53070508,-111.84899966,47.18189119,89.90991245,-177.25570099
19.75034868,26.69993712,35.63235243,-1.07609716,0.07036376,-2.51016407

>  <Name>
ligand

>  <RI>
0

>  <Rbt.Current_Directory>
/home/itssahil/PROJECTS/Mol_Feturizer/New_Systems/rnas/4p3s

>  <Rbt.Executable>
rbdock ($Id: //depot/dev/client3/rdock/2013.1/src/exe/rbdock.cxx#4 $)

>  <Rbt.Library>
libRbt.so (2013.1, Build901 2013/11/27)

>  <Rbt.Parameter_File>
/export/apps/rDock/src/rDock_2013.1_src/data/scripts/dock_solv.prm

>  <Rbt.Receptor>
prm/pocket_docking_6.prm

>  <SCORE>
-14.2908

>  <SCORE.INTER>
-9.25035

>  <SCORE.INTER.CONST>
1

>  <SCORE.INTER.POLAR>
0

>  <SCORE.INTER.ROT>
6

>  <SCORE.INTER.SOLV>
16.8002

>  <SCORE.INTER.VDW>
-19.367

>  <SCORE.INTER.norm>
-0.272069

>  <SCORE.INTRA>
-5.04042

>  <SCORE.INTRA.DIHEDRAL>
-9.60189

>  <SCORE.INTRA.DIHEDRAL.0>
15.8194

>  <SCORE.INTRA.POLAR>
0

>  <SCORE.INTRA.POLAR.0>
0

>  <SCORE.INTRA.REPUL>
0

>  <SCORE.INTRA.REPUL.0>
0

>  <SCORE.INTRA.SOLV>
-0.903465

>  <SCORE.INTRA.SOLV.lig_0>
-71.9159

>  <SCORE.INTRA.VDW>
0.212254

>  <SCORE.INTRA.VDW.0>
-3.53918

>  <SCORE.INTRA.norm>
-0.148248

>  <SCORE.RESTR>
0

>  <SCORE.RESTR.CAVITY>
0

>  <SCORE.RESTR.norm>
0

>  <SCORE.SYSTEM>
0

>  <SCORE.SYSTEM.CONST>
0

>  <SCORE.SYSTEM.DIHEDRAL>
0

>  <SCORE.SYSTEM.SOLV>
0

>  <SCORE.SYSTEM.norm>
0

>  <SCORE.heavy>
34

>  <SCORE.norm>
-0.420317

>  <RMSD>
9.163

$$$$
ligand
 OpenBabel01301917533D
libRbt.so/2013.1/901 2013/11/27
 34 36  0  0  0  0  0  0  0  0999 V2000
   19.3589   28.6421   36.8519 C   0  0  2  0  0  0  0  0  0  0  0  0
   18.0156   28.2006   37.0727 O   0  0  0  0  0  0  0  0  0  0  0  0
   15.5468   25.3238   35.0650 C   0  0  2  0  0  0  0  0  0  0  0  0
   14.7035   24.6658   34.0578 N   0  0  0  0  0  0  0  0  0  0  0  0
   17.1141   23.4203   33.0959 C   0  0  2  0  0  0  0  0  0  0  0  0
   19.9192   29.2002   38.2140 C   0  0  2  0  0  0  0  0  0  0  0  0
   19.8864   28.1643   39.2589 N   0  0  0  0  0  0  0  0  0  0  0  0
   14.9206   26.7331   35.3668 C   0  0  0  0  0  0  0  0  0  0  0  0
   17.6888   21.9623   33.2946 C   0  0  2  0  0  0  0  0  0  0  0  0
   17.1671   21.3847   34.4789 O   0  0  0  0  0  0  0  0  0  0  0  0
   19.0948   30.4432   38.6662 C   0  0  1  0  0  0  0  0  0  0  0  0
   19.6036   30.9566   39.9112 O   0  0  0  0  0  0  0  0  0  0  0  0
   15.8110   27.4270   36.4567 C   0  0  2  0  0  0  0  0  0  0  0  0
   15.2768   28.7784   36.7896 N   0  0  0  0  0  0  0  0  0  0  0  0
   19.2589   22.0611   33.3809 C   0  0  1  0  0  0  0  0  0  0  0  0
   19.8584   20.7300   33.6039 N   0  0  0  0  0  0  0  0  0  0  0  0
   19.1577   31.5050   37.5434 C   0  0  2  0  0  0  0  0  0  0  0  0
   18.4159   32.6613   37.9443 O   0  0  0  0  0  0  0  0  0  0  0  0
   17.2808   27.5761   35.9600 C   0  0  2  0  0  0  0  0  0  0  0  0
   19.8026   22.6876   32.0579 C   0  0  1  0  0  0  0  0  0  0  0  0
   19.4577   21.8266   30.9776 O   0  0  0  0  0  0  0  0  0  0  0  0
   18.5750   30.8715   36.2073 C   0  0  2  0  0  0  0  0  0  0  0  0
   19.3486   29.6722   35.8159 O   0  0  0  0  0  0  0  0  0  0  0  0
   17.8445   26.1727   35.6077 C   0  0  2  0  0  0  0  0  0  0  0  0
   19.1767   26.3403   35.1271 O   0  0  0  0  0  0  0  0  0  0  0  0
   19.1425   24.0892   31.8545 C   0  0  0  0  0  0  0  0  0  0  0  0
   17.6630   23.9933   31.8512 O   0  0  0  0  0  0  0  0  0  0  0  0
   18.5999   31.8665   35.0116 C   0  0  2  0  0  0  0  0  0  0  0  0
   19.8622   32.5420   34.9863 O   0  0  0  0  0  0  0  0  0  0  0  0
   17.0196   25.4836   34.4927 C   0  0  1  0  0  0  0  0  0  0  0  0
   17.6031   24.1736   34.2515 O   0  0  0  0  0  0  0  0  0  0  0  0
   17.5150   32.9154   35.1185 C   0  0  0  0  0  0  0  0  0  0  0  0
   21.3246   22.8361   32.0717 C   0  0  0  0  0  0  0  0  0  0  0  0
   20.2457   20.6510   35.0338 C   0  0  0  0  0  0  0  0  0  0  0  0
  1  2  1  1  0  0  0
  1  6  1  0  0  0  0
  1 23  1  0  0  0  0
  3  4  1  6  0  0  0
  3  8  1  0  0  0  0
  3 30  1  0  0  0  0
  5  9  1  0  0  0  0
  5 27  1  0  0  0  0
  5 31  1  1  0  0  0
  6  7  1  1  0  0  0
  6 11  1  0  0  0  0
  8 13  1  0  0  0  0
  9 10  1  1  0  0  0
  9 15  1  0  0  0  0
 11 12  1  1  0  0  0
 11 17  1  0  0  0  0
 13 14  1  6  0  0  0
 13 19  1  0  0  0  0
 15 16  1  6  0  0  0
 15 20  1  0  0  0  0
 16 34  1  0  0  0  0
 17 18  1  1  0  0  0
 17 22  1  0  0  0  0
 19  2  1  1  0  0  0
 19 24  1  0  0  0  0
 20 21  1  6  0  0  0
 20 26  1  0  0  0  0
 20 33  1  0  0  0  0
 22 23  1  6  0  0  0
 22 28  1  0  0  0  0
 24 25  1  6  0  0  0
 24 30  1  0  0  0  0
 26 27  1  0  0  0  0
 28 29  1  1  0  0  0
 28 32  1  0  0  0  0
 30 31  1  1  0  0  0
M  END
>  <CHROM.1>
-177.33691641,-171.23537298,-103.15765972,44.32795910,73.69335360,-167.91872031
18.29703687,26.65812923,35.21262643,-1.56915444,0.03638031,-2.69550509

>  <Name>
ligand

>  <RI>
0

>  <Rbt.Current_Directory>
/home/itssahil/PROJECTS/Mol_Feturizer/New_Systems/rnas/4p3s

>  <Rbt.Executable>
rbdock ($Id: //depot/dev/client3/rdock/2013.1/src/exe/rbdock.cxx#4 $)

>  <Rbt.Library>
libRbt.so (2013.1, Build901 2013/11/27)

>  <Rbt.Parameter_File>
/export/apps/rDock/src/rDock_2013.1_src/data/scripts/dock_solv.prm

>  <Rbt.Receptor>
prm/pocket_docking_7.prm

>  <SCORE>
-16.478

>  <SCORE.INTER>
-10.7476

>  <SCORE.INTER.CONST>
1

>  <SCORE.INTER.POLAR>
0

>  <SCORE.INTER.ROT>
6

>  <SCORE.INTER.SOLV>
13.1491

>  <SCORE.INTER.VDW>
-19.1481

>  <SCORE.INTER.norm>
-0.316106

>  <SCORE.INTRA>
-5.73042

>  <SCORE.INTRA.DIHEDRAL>
-11.9213

>  <SCORE.INTRA.DIHEDRAL.0>
15.8194

>  <SCORE.INTRA.POLAR>
0

>  <SCORE.INTRA.POLAR.0>
0

>  <SCORE.INTRA.REPUL>
0

>  <SCORE.INTRA.REPUL.0>
0

>  <SCORE.INTRA.SOLV>
-0.44578

>  <SCORE.INTRA.SOLV.lig_0>
-71.9159

>  <SCORE.INTRA.VDW>
0.45311

>  <SCORE.INTRA.VDW.0>
-3.53918

>  <SCORE.INTRA.norm>
-0.168542

>  <SCORE.RESTR>
0

>  <SCORE.RESTR.CAVITY>
0

>  <SCORE.RESTR.norm>
0

>  <SCORE.SYSTEM>
0

>  <SCORE.SYSTEM.CONST>
0

>  <SCORE.SYSTEM.DIHEDRAL>
0

>  <SCORE.SYSTEM.SOLV>
0

>  <SCORE.SYSTEM.norm>
0

>  <SCORE.heavy>
34

>  <SCORE.norm>
-0.484648

>  <RMSD>
9.166

$$$$
ligand
 OpenBabel01301917533D
libRbt.so/2013.1/901 2013/11/27
 34 36  0  0  0  0  0  0  0  0999 V2000
   17.2923   30.7680   36.0981 C   0  0  2  0  0  0  0  0  0  0  0  0
   17.7612   29.4264   35.9296 O   0  0  0  0  0  0  0  0  0  0  0  0
   15.8196   25.7145   35.0057 C   0  0  2  0  0  0  0  0  0  0  0  0
   14.9421   24.7121   34.3862 N   0  0  0  0  0  0  0  0  0  0  0  0
   17.2192   24.2382   32.4651 C   0  0  2  0  0  0  0  0  0  0  0  0
   17.4526   31.5174   34.7220 C   0  0  2  0  0  0  0  0  0  0  0  0
   16.6898   30.8382   33.6624 N   0  0  0  0  0  0  0  0  0  0  0  0
   14.9168   26.9039   35.4950 C   0  0  0  0  0  0  0  0  0  0  0  0
   17.5217   22.7797   32.9910 C   0  0  2  0  0  0  0  0  0  0  0  0
   16.8110   22.5321   34.1919 O   0  0  0  0  0  0  0  0  0  0  0  0
   18.9580   31.6023   34.3276 C   0  0  1  0  0  0  0  0  0  0  0  0
   19.1092   32.2865   33.0701 O   0  0  0  0  0  0  0  0  0  0  0  0
   15.8526   27.9650   36.1737 C   0  0  2  0  0  0  0  0  0  0  0  0
   15.0602   29.1307   36.6592 N   0  0  0  0  0  0  0  0  0  0  0  0
   19.0728   22.6594   33.2397 C   0  0  1  0  0  0  0  0  0  0  0  0
   19.4190   21.3250   33.7692 N   0  0  0  0  0  0  0  0  0  0  0  0
   19.7201   32.3231   35.4641 C   0  0  2  0  0  0  0  0  0  0  0  0
   21.1046   32.4226   35.1159 O   0  0  0  0  0  0  0  0  0  0  0  0
   16.9326   28.4739   35.1717 C   0  0  2  0  0  0  0  0  0  0  0  0
   19.8252   22.9237   31.8972 C   0  0  1  0  0  0  0  0  0  0  0  0
   19.4344   21.9267   30.9588 O   0  0  0  0  0  0  0  0  0  0  0  0
   19.5143   31.5097   36.8139 C   0  0  2  0  0  0  0  0  0  0  0  0
   18.0768   31.4093   37.1507 O   0  0  0  0  0  0  0  0  0  0  0  0
   17.7611   27.2650   34.6581 C   0  0  2  0  0  0  0  0  0  0  0  0
   18.7193   27.7531   33.7213 O   0  0  0  0  0  0  0  0  0  0  0  0
   19.4298   24.3393   31.3670 C   0  0  0  0  0  0  0  0  0  0  0  0
   17.9610   24.4653   31.2094 O   0  0  0  0  0  0  0  0  0  0  0  0
   20.2433   32.1618   38.0238 C   0  0  2  0  0  0  0  0  0  0  0  0
   19.9700   33.5672   38.0377 O   0  0  0  0  0  0  0  0  0  0  0  0
   16.8731   26.2245   33.9322 C   0  0  1  0  0  0  0  0  0  0  0  0
   17.7270   25.1245   33.5134 O   0  0  0  0  0  0  0  0  0  0  0  0
   21.7437   31.9820   37.9513 C   0  0  0  0  0  0  0  0  0  0  0  0
   21.3437   22.8444   32.0605 C   0  0  0  0  0  0  0  0  0  0  0  0
   19.6461   21.4709   35.2280 C   0  0  0  0  0  0  0  0  0  0  0  0
  1  2  1  6  0  0  0
  1  6  1  0  0  0  0
  1 23  1  0  0  0  0
  3  4  1  6  0  0  0
  3  8  1  0  0  0  0
  3 30  1  0  0  0  0
  5  9  1  0  0  0  0
  5 27  1  0  0  0  0
  5 31  1  1  0  0  0
  6  7  1  6  0  0  0
  6 11  1  0  0  0  0
  8 13  1  0  0  0  0
  9 10  1  1  0  0  0
  9 15  1  0  0  0  0
 11 12  1  6  0  0  0
 11 17  1  0  0  0  0
 13 14  1  6  0  0  0
 13 19  1  0  0  0  0
 15 16  1  6  0  0  0
 15 20  1  0  0  0  0
 16 34  1  0  0  0  0
 17 18  1  6  0  0  0
 17 22  1  0  0  0  0
 19  2  1  1  0  0  0
 19 24  1  0  0  0  0
 20 21  1  6  0  0  0
 20 26  1  0  0  0  0
 20 33  1  0  0  0  0
 22 23  1  1  0  0  0
 22 28  1  0  0  0  0
 24 25  1  6  0  0  0
 24 30  1  0  0  0  0
 26 27  1  0  0  0  0
 28 29  1  6  0  0  0
 28 32  1  0  0  0  0
 30 31  1  1  0  0  0
M  END
>  <CHROM.1>
-73.67385520,-81.33020452,-102.41989190,46.80458194,83.27513431,-134.14960400
18.27166673,27.43914268,34.53560157,1.50618580,0.26680196,0.37779246

>  <Name>
ligand

>  <RI>
0

>  <Rbt.Current_Directory>
/home/itssahil/PROJECTS/Mol_Feturizer/New_Systems/rnas/4p3s

>  <Rbt.Executable>
rbdock ($Id: //depot/dev/client3/rdock/2013.1/src/exe/rbdock.cxx#4 $)

>  <Rbt.Library>
libRbt.so (2013.1, Build901 2013/11/27)

>  <Rbt.Parameter_File>
/export/apps/rDock/src/rDock_2013.1_src/data/scripts/dock_solv.prm

>  <Rbt.Receptor>
prm/pocket_docking_4.prm

>  <SCORE>
-11.0916

>  <SCORE.INTER>
-12.4785

>  <SCORE.INTER.CONST>
1

>  <SCORE.INTER.POLAR>
0

>  <SCORE.INTER.ROT>
6

>  <SCORE.INTER.SOLV>
15.5896

>  <SCORE.INTER.VDW>
-21.1156

>  <SCORE.INTER.norm>
-0.367016

>  <SCORE.INTRA>
1.38699

>  <SCORE.INTRA.DIHEDRAL>
-2.71568

>  <SCORE.INTRA.DIHEDRAL.0>
15.8194

>  <SCORE.INTRA.POLAR>
0

>  <SCORE.INTRA.POLAR.0>
0

>  <SCORE.INTRA.REPUL>
0

>  <SCORE.INTRA.REPUL.0>
0

>  <SCORE.INTRA.SOLV>
4.07301

>  <SCORE.INTRA.SOLV.lig_0>
-71.9159

>  <SCORE.INTRA.VDW>
0.708325

>  <SCORE.INTRA.VDW.0>
-3.53918

>  <SCORE.INTRA.norm>
0.0407939

>  <SCORE.RESTR>
0

>  <SCORE.RESTR.CAVITY>
0

>  <SCORE.RESTR.norm>
0

>  <SCORE.SYSTEM>
0

>  <SCORE.SYSTEM.CONST>
0

>  <SCORE.SYSTEM.DIHEDRAL>
0

>  <SCORE.SYSTEM.SOLV>
0

>  <SCORE.SYSTEM.norm>
0

>  <SCORE.heavy>
34

>  <SCORE.norm>
-0.326222

>  <RMSD>
9.171

$$$$
ligand
 OpenBabel01301917533D
libRbt.so/2013.1/901 2013/11/27
 34 36  0  0  0  0  0  0  0  0999 V2000
   18.2559   30.2874   35.2018 C   0  0  2  0  0  0  0  0  0  0  0  0
   17.4832   29.3111   35.9075 O   0  0  0  0  0  0  0  0  0  0  0  0
   15.8502   25.4720   34.9091 C   0  0  2  0  0  0  0  0  0  0  0  0
   15.0505   24.4148   34.2756 N   0  0  0  0  0  0  0  0  0  0  0  0
   17.2991   24.1459   32.3559 C   0  0  2  0  0  0  0  0  0  0  0  0
   19.1192   31.0800   36.2539 C   0  0  2  0  0  0  0  0  0  0  0  0
   20.0030   30.1699   37.0000 N   0  0  0  0  0  0  0  0  0  0  0  0
   14.8580   26.5652   35.4473 C   0  0  0  0  0  0  0  0  0  0  0  0
   17.6249   22.7198   32.9520 C   0  0  2  0  0  0  0  0  0  0  0  0
   16.9022   22.5116   34.1532 O   0  0  0  0  0  0  0  0  0  0  0  0
   18.1911   31.8524   37.2393 C   0  0  1  0  0  0  0  0  0  0  0  0
   18.9763   32.5783   38.2031 O   0  0  0  0  0  0  0  0  0  0  0  0
   15.7120   27.6842   36.1408 C   0  0  2  0  0  0  0  0  0  0  0  0
   14.8318   28.7635   36.6726 N   0  0  0  0  0  0  0  0  0  0  0  0
   19.1744   22.6449   33.2269 C   0  0  1  0  0  0  0  0  0  0  0  0
   19.5411   21.3437   33.8215 N   0  0  0  0  0  0  0  0  0  0  0  0
   17.2836   32.7963   36.4161 C   0  0  2  0  0  0  0  0  0  0  0  0
   16.4305   33.5252   37.3043 O   0  0  0  0  0  0  0  0  0  0  0  0
   16.7253   28.3116   35.1363 C   0  0  2  0  0  0  0  0  0  0  0  0
   19.9404   22.8642   31.8840 C   0  0  1  0  0  0  0  0  0  0  0  0
   19.5845   21.8173   30.9869 O   0  0  0  0  0  0  0  0  0  0  0  0
   16.4451   31.9270   35.3830 C   0  0  2  0  0  0  0  0  0  0  0  0
   17.3448   31.1736   34.4813 O   0  0  0  0  0  0  0  0  0  0  0  0
   17.6446   27.1933   34.5745 C   0  0  2  0  0  0  0  0  0  0  0  0
   18.5395   27.7876   33.6365 O   0  0  0  0  0  0  0  0  0  0  0  0
   19.5228   24.2453   31.2843 C   0  0  0  0  0  0  0  0  0  0  0  0
   18.0541   24.3319   31.1012 O   0  0  0  0  0  0  0  0  0  0  0  0
   15.4999   32.7918   34.5003 C   0  0  2  0  0  0  0  0  0  0  0  0
   16.2358   33.8961   33.9627 O   0  0  0  0  0  0  0  0  0  0  0  0
   16.8356   26.1001   33.8336 C   0  0  1  0  0  0  0  0  0  0  0  0
   17.7728   25.0898   33.3693 O   0  0  0  0  0  0  0  0  0  0  0  0
   14.3352   33.3503   35.2878 C   0  0  0  0  0  0  0  0  0  0  0  0
   21.4577   22.8256   32.0712 C   0  0  0  0  0  0  0  0  0  0  0  0
   19.6537   21.5410   35.2875 C   0  0  0  0  0  0  0  0  0  0  0  0
  1  2  1  1  0  0  0
  1  6  1  0  0  0  0
  1 23  1  0  0  0  0
  3  4  1  6  0  0  0
  3  8  1  0  0  0  0
  3 30  1  0  0  0  0
  5  9  1  0  0  0  0
  5 27  1  0  0  0  0
  5 31  1  1  0  0  0
  6  7  1  1  0  0  0
  6 11  1  0  0  0  0
  8 13  1  0  0  0  0
  9 10  1  1  0  0  0
  9 15  1  0  0  0  0
 11 12  1  1  0  0  0
 11 17  1  0  0  0  0
 13 14  1  6  0  0  0
 13 19  1  0  0  0  0
 15 16  1  6  0  0  0
 15 20  1  0  0  0  0
 16 34  1  0  0  0  0
 17 18  1  1  0  0  0
 17 22  1  0  0  0  0
 19  2  1  1  0  0  0
 19 24  1  0  0  0  0
 20 21  1  6  0  0  0
 20 26  1  0  0  0  0
 20 33  1  0  0  0  0
 22 23  1  6  0  0  0
 22 28  1  0  0  0  0
 24 25  1  6  0  0  0
 24 30  1  0  0  0  0
 26 27  1  0  0  0  0
 28 29  1  1  0  0  0
 28 32  1  0  0  0  0
 30 31  1  1  0  0  0
M  END
>  <CHROM.1>
-171.74570681,-164.59758970,-98.64798036,48.62777145,80.05135028,-127.50195019
17.60465556,27.46263222,34.52716405,-1.76066352,-0.04653337,-2.81694701

>  <Name>
ligand

>  <RI>
0

>  <Rbt.Current_Directory>
/home/itssahil/PROJECTS/Mol_Feturizer/New_Systems/rnas/4p3s

>  <Rbt.Executable>
rbdock ($Id: //depot/dev/client3/rdock/2013.1/src/exe/rbdock.cxx#4 $)

>  <Rbt.Library>
libRbt.so (2013.1, Build901 2013/11/27)

>  <Rbt.Parameter_File>
/export/apps/rDock/src/rDock_2013.1_src/data/scripts/dock_solv.prm

>  <Rbt.Receptor>
prm/pocket_docking_6.prm

>  <SCORE>
-18.6659

>  <SCORE.INTER>
-17.4055

>  <SCORE.INTER.CONST>
1

>  <SCORE.INTER.POLAR>
0

>  <SCORE.INTER.ROT>
6

>  <SCORE.INTER.SOLV>
14.3124

>  <SCORE.INTER.VDW>
-23.9745

>  <SCORE.INTER.norm>
-0.511927

>  <SCORE.INTRA>
-1.26043

>  <SCORE.INTRA.DIHEDRAL>
-4.30589

>  <SCORE.INTRA.DIHEDRAL.0>
15.8194

>  <SCORE.INTRA.POLAR>
0

>  <SCORE.INTRA.POLAR.0>
0

>  <SCORE.INTRA.REPUL>
0

>  <SCORE.INTRA.REPUL.0>
0

>  <SCORE.INTRA.SOLV>
0.907008

>  <SCORE.INTRA.SOLV.lig_0>
-71.9159

>  <SCORE.INTRA.VDW>
0.439009

>  <SCORE.INTRA.VDW.0>
-3.53918

>  <SCORE.INTRA.norm>
-0.0370715

>  <SCORE.RESTR>
0

>  <SCORE.RESTR.CAVITY>
0

>  <SCORE.RESTR.norm>
0

>  <SCORE.SYSTEM>
0

>  <SCORE.SYSTEM.CONST>
0

>  <SCORE.SYSTEM.DIHEDRAL>
0

>  <SCORE.SYSTEM.SOLV>
0

>  <SCORE.SYSTEM.norm>
0

>  <SCORE.heavy>
34

>  <SCORE.norm>
-0.548998

>  <RMSD>
9.171

$$$$
ligand
 OpenBabel01301917533D
libRbt.so/2013.1/901 2013/11/27
 34 36  0  0  0  0  0  0  0  0999 V2000
   19.2261   29.2160   35.5807 C   0  0  2  0  0  0  0  0  0  0  0  0
   18.0617   28.6125   36.1537 O   0  0  0  0  0  0  0  0  0  0  0  0
   15.6159   25.2617   35.0619 C   0  0  2  0  0  0  0  0  0  0  0  0
   14.6781   24.3921   34.3387 N   0  0  0  0  0  0  0  0  0  0  0  0
   17.1553   23.3795   32.8542 C   0  0  2  0  0  0  0  0  0  0  0  0
   19.9668   30.0204   36.7143 C   0  0  2  0  0  0  0  0  0  0  0  0
   20.3449   29.1332   37.8260 N   0  0  0  0  0  0  0  0  0  0  0  0
   14.8944   26.6334   35.3205 C   0  0  0  0  0  0  0  0  0  0  0  0
   17.7246   21.9403   33.1708 C   0  0  2  0  0  0  0  0  0  0  0  0
   17.1581   21.4397   34.3695 O   0  0  0  0  0  0  0  0  0  0  0  0
   19.0592   31.1752   37.2357 C   0  0  1  0  0  0  0  0  0  0  0  0
   19.7324   31.9131   38.2723 O   0  0  0  0  0  0  0  0  0  0  0  0
   15.8899   27.5545   36.1098 C   0  0  2  0  0  0  0  0  0  0  0  0
   15.2710   28.8822   36.3861 N   0  0  0  0  0  0  0  0  0  0  0  0
   19.2899   22.0515   33.3112 C   0  0  1  0  0  0  0  0  0  0  0  0
   19.8827   20.7407   33.6447 N   0  0  0  0  0  0  0  0  0  0  0  0
   18.6884   32.0822   36.0391 C   0  0  2  0  0  0  0  0  0  0  0  0
   17.8639   33.1577   36.4990 O   0  0  0  0  0  0  0  0  0  0  0  0
   17.2047   27.7715   35.3014 C   0  0  2  0  0  0  0  0  0  0  0  0
   19.8836   22.5920   31.9719 C   0  0  1  0  0  0  0  0  0  0  0  0
   19.5827   21.6602   30.9382 O   0  0  0  0  0  0  0  0  0  0  0  0
   17.9450   31.2040   34.9427 C   0  0  2  0  0  0  0  0  0  0  0  0
   18.8096   30.0922   34.4883 O   0  0  0  0  0  0  0  0  0  0  0  0
   17.8548   26.3925   35.0061 C   0  0  2  0  0  0  0  0  0  0  0  0
   19.0367   26.6169   34.2402 O   0  0  0  0  0  0  0  0  0  0  0  0
   19.2293   23.9742   31.6510 C   0  0  0  0  0  0  0  0  0  0  0  0
   17.7513   23.8717   31.5967 O   0  0  0  0  0  0  0  0  0  0  0  0
   17.5333   32.0306   33.6907 C   0  0  2  0  0  0  0  0  0  0  0  0
   18.6430   32.8305   33.2678 O   0  0  0  0  0  0  0  0  0  0  0  0
   16.9176   25.4789   34.1783 C   0  0  1  0  0  0  0  0  0  0  0  0
   17.5974   24.2094   33.9757 O   0  0  0  0  0  0  0  0  0  0  0  0
   16.3739   32.9598   33.9756 C   0  0  0  0  0  0  0  0  0  0  0  0
   21.4036   22.7478   32.0349 C   0  0  0  0  0  0  0  0  0  0  0  0
   20.2109   20.7565   35.0914 C   0  0  0  0  0  0  0  0  0  0  0  0
  1  2  1  1  0  0  0
  1  6  1  0  0  0  0
  1 23  1  0  0  0  0
  3  4  1  6  0  0  0
  3  8  1  0  0  0  0
  3 30  1  0  0  0  0
  5  9  1  0  0  0  0
  5 27  1  0  0  0  0
  5 31  1  1  0  0  0
  6  7  1  1  0  0  0
  6 11  1  0  0  0  0
  8 13  1  0  0  0  0
  9 10  1  1  0  0  0
  9 15  1  0  0  0  0
 11 12  1  1  0  0  0
 11 17  1  0  0  0  0
 13 14  1  6  0  0  0
 13 19  1  0  0  0  0
 15 16  1  6  0  0  0
 15 20  1  0  0  0  0
 16 34  1  0  0  0  0
 17 18  1  1  0  0  0
 17 22  1  0  0  0  0
 19  2  1  1  0  0  0
 19 24  1  0  0  0  0
 20 21  1  6  0  0  0
 20 26  1  0  0  0  0
 20 33  1  0  0  0  0
 22 23  1  6  0  0  0
 22 28  1  0  0  0  0
 24 25  1  6  0  0  0
 24 30  1  0  0  0  0
 26 27  1  0  0  0  0
 28 29  1  1  0  0  0
 28 32  1  0  0  0  0
 30 31  1  1  0  0  0
M  END
>  <CHROM.1>
-178.58026016,-167.18464852,-103.01437035,46.98479487,86.15163212,-162.50508914
18.15184131,26.85974035,34.55251129,-1.62351000,-0.10772642,-2.85332941

>  <Name>
ligand

>  <RI>
0

>  <Rbt.Current_Directory>
/home/itssahil/PROJECTS/Mol_Feturizer/New_Systems/rnas/4p3s

>  <Rbt.Executable>
rbdock ($Id: //depot/dev/client3/rdock/2013.1/src/exe/rbdock.cxx#4 $)

>  <Rbt.Library>
libRbt.so (2013.1, Build901 2013/11/27)

>  <Rbt.Parameter_File>
/export/apps/rDock/src/rDock_2013.1_src/data/scripts/dock_solv.prm

>  <Rbt.Receptor>
prm/pocket_docking_5.prm

>  <SCORE>
-17.2957

>  <SCORE.INTER>
-12.7592

>  <SCORE.INTER.CONST>
1

>  <SCORE.INTER.POLAR>
0

>  <SCORE.INTER.ROT>
6

>  <SCORE.INTER.SOLV>
12.4636

>  <SCORE.INTER.VDW>
-20.2607

>  <SCORE.INTER.norm>
-0.37527

>  <SCORE.INTRA>
-4.53652

>  <SCORE.INTRA.DIHEDRAL>
-9.13251

>  <SCORE.INTRA.DIHEDRAL.0>
15.8194

>  <SCORE.INTRA.POLAR>
0

>  <SCORE.INTRA.POLAR.0>
0

>  <SCORE.INTRA.REPUL>
0

>  <SCORE.INTRA.REPUL.0>
0

>  <SCORE.INTRA.SOLV>
-0.365131

>  <SCORE.INTRA.SOLV.lig_0>
-71.9159

>  <SCORE.INTRA.VDW>
0.212301

>  <SCORE.INTRA.VDW.0>
-3.53918

>  <SCORE.INTRA.norm>
-0.133427

>  <SCORE.RESTR>
0

>  <SCORE.RESTR.CAVITY>
0

>  <SCORE.RESTR.norm>
0

>  <SCORE.SYSTEM>
0

>  <SCORE.SYSTEM.CONST>
0

>  <SCORE.SYSTEM.DIHEDRAL>
0

>  <SCORE.SYSTEM.SOLV>
0

>  <SCORE.SYSTEM.norm>
0

>  <SCORE.heavy>
34

>  <SCORE.norm>
-0.508697

>  <RMSD>
9.175

$$$$
ligand
 OpenBabel01301917533D
libRbt.so/2013.1/901 2013/11/27
 34 36  0  0  0  0  0  0  0  0999 V2000
   17.2479   27.7188   33.8093 C   0  0  2  0  0  0  0  0  0  0  0  0
   18.5182   27.3222   34.3360 O   0  0  0  0  0  0  0  0  0  0  0  0
   19.4332   23.8702   31.9593 C   0  0  2  0  0  0  0  0  0  0  0  0
   20.1385   22.9175   31.0912 N   0  0  0  0  0  0  0  0  0  0  0  0
   18.8168   22.1021   34.3060 C   0  0  2  0  0  0  0  0  0  0  0  0
   16.4846   28.5216   34.9289 C   0  0  2  0  0  0  0  0  0  0  0  0
   17.2566   29.7030   35.3465 N   0  0  0  0  0  0  0  0  0  0  0  0
   19.4420   25.2683   31.2422 C   0  0  0  0  0  0  0  0  0  0  0  0
   19.0804   20.9894   35.3959 C   0  0  2  0  0  0  0  0  0  0  0  0
   19.5922   21.5733   36.5815 O   0  0  0  0  0  0  0  0  0  0  0  0
   16.2071   27.6020   36.1562 C   0  0  1  0  0  0  0  0  0  0  0  0
   15.5095   28.3320   37.1823 O   0  0  0  0  0  0  0  0  0  0  0  0
   18.6717   26.2805   32.1612 C   0  0  2  0  0  0  0  0  0  0  0  0
   18.6455   27.6368   31.5431 N   0  0  0  0  0  0  0  0  0  0  0  0
   20.1144   19.9582   34.8045 C   0  0  1  0  0  0  0  0  0  0  0  0
   20.4329   18.9073   35.7920 N   0  0  0  0  0  0  0  0  0  0  0  0
   15.3939   26.3778   35.6745 C   0  0  2  0  0  0  0  0  0  0  0  0
   15.1175   25.5252   36.7902 O   0  0  0  0  0  0  0  0  0  0  0  0
   19.3451   26.3802   33.5633 C   0  0  2  0  0  0  0  0  0  0  0  0
   19.5160   19.3239   33.5092 C   0  0  1  0  0  0  0  0  0  0  0  0
   18.3246   18.6269   33.8587 O   0  0  0  0  0  0  0  0  0  0  0  0
   16.2267   25.6201   34.5527 C   0  0  2  0  0  0  0  0  0  0  0  0
   16.5109   26.5210   33.4135 O   0  0  0  0  0  0  0  0  0  0  0  0
   19.3796   24.9704   34.2135 C   0  0  2  0  0  0  0  0  0  0  0  0
   20.0275   25.0839   35.4788 O   0  0  0  0  0  0  0  0  0  0  0  0
   19.1877   20.4650   32.4935 C   0  0  0  0  0  0  0  0  0  0  0  0
   18.2737   21.4697   33.0878 O   0  0  0  0  0  0  0  0  0  0  0  0
   15.4859   24.3692   33.9984 C   0  0  2  0  0  0  0  0  0  0  0  0
   15.3010   23.4230   35.0570 O   0  0  0  0  0  0  0  0  0  0  0  0
   20.1821   23.9601   33.3569 C   0  0  1  0  0  0  0  0  0  0  0  0
   20.1364   22.6711   34.0284 O   0  0  0  0  0  0  0  0  0  0  0  0
   16.2650   23.6856   32.8964 C   0  0  0  0  0  0  0  0  0  0  0  0
   20.4726   18.3219   32.8613 C   0  0  0  0  0  0  0  0  0  0  0  0
   21.8417   18.4999   35.5687 C   0  0  0  0  0  0  0  0  0  0  0  0
  1  2  1  1  0  0  0
  1  6  1  0  0  0  0
  1 23  1  0  0  0  0
  3  4  1  6  0  0  0
  3  8  1  0  0  0  0
  3 30  1  0  0  0  0
  5  9  1  0  0  0  0
  5 27  1  0  0  0  0
  5 31  1  6  0  0  0
  6  7  1  1  0  0  0
  6 11  1  0  0  0  0
  8 13  1  0  0  0  0
  9 10  1  1  0  0  0
  9 15  1  0  0  0  0
 11 12  1  1  0  0  0
 11 17  1  0  0  0  0
 13 14  1  6  0  0  0
 13 19  1  0  0  0  0
 15 16  1  1  0  0  0
 15 20  1  0  0  0  0
 16 34  1  0  0  0  0
 17 18  1  1  0  0  0
 17 22  1  0  0  0  0
 19  2  1  1  0  0  0
 19 24  1  0  0  0  0
 20 21  1  1  0  0  0
 20 26  1  0  0  0  0
 20 33  1  0  0  0  0
 22 23  1  6  0  0  0
 22 28  1  0  0  0  0
 24 25  1  1  0  0  0
 24 30  1  0  0  0  0
 26 27  1  0  0  0  0
 28 29  1  1  0  0  0
 28 32  1  0  0  0  0
 30 31  1  1  0  0  0
M  END
>  <CHROM.1>
170.67891856,11.16415158,-147.61315520,-62.56732052,-58.37339350,-162.92520500
18.29887122,23.91303264,34.18097067,-2.20646724,-0.86845716,2.71867564

>  <Name>
ligand

>  <RI>
0

>  <Rbt.Current_Directory>
/home/itssahil/PROJECTS/Mol_Feturizer/New_Systems/rnas/4p3s

>  <Rbt.Executable>
rbdock ($Id: //depot/dev/client3/rdock/2013.1/src/exe/rbdock.cxx#4 $)

>  <Rbt.Library>
libRbt.so (2013.1, Build901 2013/11/27)

>  <Rbt.Parameter_File>
/export/apps/rDock/src/rDock_2013.1_src/data/scripts/dock_solv.prm

>  <Rbt.Receptor>
prm/blind_docking_60.prm

>  <SCORE>
16.3496

>  <SCORE.INTER>
4.46001

>  <SCORE.INTER.CONST>
1

>  <SCORE.INTER.POLAR>
0

>  <SCORE.INTER.ROT>
6

>  <SCORE.INTER.SOLV>
27.8234

>  <SCORE.INTER.VDW>
-13.9011

>  <SCORE.INTER.norm>
0.131177

>  <SCORE.INTRA>
5.7018

>  <SCORE.INTRA.DIHEDRAL>
-6.64504

>  <SCORE.INTRA.DIHEDRAL.0>
15.8194

>  <SCORE.INTRA.POLAR>
0

>  <SCORE.INTRA.POLAR.0>
0

>  <SCORE.INTRA.REPUL>
0

>  <SCORE.INTRA.REPUL.0>
0

>  <SCORE.INTRA.SOLV>
2.87569

>  <SCORE.INTRA.SOLV.lig_0>
-71.9159

>  <SCORE.INTRA.VDW>
7.58648

>  <SCORE.INTRA.VDW.0>
-3.53918

>  <SCORE.INTRA.norm>
0.1677

>  <SCORE.RESTR>
6.18777

>  <SCORE.RESTR.CAVITY>
6.18777

>  <SCORE.RESTR.norm>
0.181993

>  <SCORE.SYSTEM>
0

>  <SCORE.SYSTEM.CONST>
0

>  <SCORE.SYSTEM.DIHEDRAL>
0

>  <SCORE.SYSTEM.SOLV>
0

>  <SCORE.SYSTEM.norm>
0

>  <SCORE.heavy>
34

>  <SCORE.norm>
0.48087

>  <RMSD>
9.178

$$$$
ligand
 OpenBabel01301917533D
libRbt.so/2013.1/901 2013/11/27
 34 36  0  0  0  0  0  0  0  0999 V2000
   22.5746   34.5606   36.8036 C   0  0  2  0  0  0  0  0  0  0  0  0
   22.2784   33.2930   36.2089 O   0  0  0  0  0  0  0  0  0  0  0  0
   21.1286   33.4309   32.0783 C   0  0  2  0  0  0  0  0  0  0  0  0
   20.3472   33.3110   30.8400 N   0  0  0  0  0  0  0  0  0  0  0  0
   21.8034   36.2714   31.8334 C   0  0  2  0  0  0  0  0  0  0  0  0
   23.8393   34.3835   37.7255 C   0  0  2  0  0  0  0  0  0  0  0  0
   24.9921   33.9013   36.9480 N   0  0  0  0  0  0  0  0  0  0  0  0
   21.1184   32.0291   32.7884 C   0  0  0  0  0  0  0  0  0  0  0  0
   21.6257   37.8210   31.5834 C   0  0  2  0  0  0  0  0  0  0  0  0
   21.3719   38.4909   32.8063 O   0  0  0  0  0  0  0  0  0  0  0  0
   23.5244   33.3927   38.8866 C   0  0  1  0  0  0  0  0  0  0  0  0
   24.6780   33.2277   39.7318 O   0  0  0  0  0  0  0  0  0  0  0  0
   21.9693   32.1532   34.1009 C   0  0  2  0  0  0  0  0  0  0  0  0
   21.9985   30.8549   34.8332 N   0  0  0  0  0  0  0  0  0  0  0  0
   20.4198   38.0228   30.5897 C   0  0  1  0  0  0  0  0  0  0  0  0
   20.1767   39.4582   30.3418 N   0  0  0  0  0  0  0  0  0  0  0  0
   22.3117   33.9373   39.6771 C   0  0  2  0  0  0  0  0  0  0  0  0
   22.0131   33.0472   40.7571 O   0  0  0  0  0  0  0  0  0  0  0  0
   21.3814   33.2477   35.0420 C   0  0  2  0  0  0  0  0  0  0  0  0
   20.7359   37.2855   29.2500 C   0  0  1  0  0  0  0  0  0  0  0  0
   21.9015   37.8707   28.6787 O   0  0  0  0  0  0  0  0  0  0  0  0
   21.0792   34.0856   38.6846 C   0  0  2  0  0  0  0  0  0  0  0  0
   21.4115   35.0010   37.5703 O   0  0  0  0  0  0  0  0  0  0  0  0
   21.3442   34.6035   34.2858 C   0  0  2  0  0  0  0  0  0  0  0  0
   20.7743   35.5787   35.1564 O   0  0  0  0  0  0  0  0  0  0  0  0
   20.9920   35.7743   29.5536 C   0  0  0  0  0  0  0  0  0  0  0  0
   22.0782   35.6004   30.5477 O   0  0  0  0  0  0  0  0  0  0  0  0
   19.8051   34.6341   39.3889 C   0  0  2  0  0  0  0  0  0  0  0  0
   20.1461   35.8090   40.1329 O   0  0  0  0  0  0  0  0  0  0  0  0
   20.4648   34.5298   33.0132 C   0  0  1  0  0  0  0  0  0  0  0  0
   20.5124   35.8294   32.3625 O   0  0  0  0  0  0  0  0  0  0  0  0
   19.2087   33.6320   40.3527 C   0  0  0  0  0  0  0  0  0  0  0  0
   19.5993   37.4179   28.2354 C   0  0  0  0  0  0  0  0  0  0  0  0
   19.0212   39.8643   31.1789 C   0  0  0  0  0  0  0  0  0  0  0  0
  1  2  1  1  0  0  0
  1  6  1  0  0  0  0
  1 23  1  0  0  0  0
  3  4  1  6  0  0  0
  3  8  1  0  0  0  0
  3 30  1  0  0  0  0
  5  9  1  0  0  0  0
  5 27  1  0  0  0  0
  5 31  1  6  0  0  0
  6  7  1  6  0  0  0
  6 11  1  0  0  0  0
  8 13  1  0  0  0  0
  9 10  1  1  0  0  0
  9 15  1  0  0  0  0
 11 12  1  1  0  0  0
 11 17  1  0  0  0  0
 13 14  1  1  0  0  0
 13 19  1  0  0  0  0
 15 16  1  6  0  0  0
 15 20  1  0  0  0  0
 16 34  1  0  0  0  0
 17 18  1  1  0  0  0
 17 22  1  0  0  0  0
 19  2  1  1  0  0  0
 19 24  1  0  0  0  0
 20 21  1  6  0  0  0
 20 26  1  0  0  0  0
 20 33  1  0  0  0  0
 22 23  1  6  0  0  0
 22 28  1  0  0  0  0
 24 25  1  1  0  0  0
 24 30  1  0  0  0  0
 26 27  1  0  0  0  0
 28 29  1  1  0  0  0
 28 32  1  0  0  0  0
 30 31  1  6  0  0  0
M  END
>  <CHROM.1>
-163.87936440,141.98881926,-100.89855451,50.03716887,-50.58714603,-164.37259915
21.42446232,35.09666475,34.49861418,1.15446583,-1.21446646,1.55495070

>  <Name>
ligand

>  <RI>
0

>  <Rbt.Current_Directory>
/home/itssahil/PROJECTS/Mol_Feturizer/New_Systems/rnas/4p3s

>  <Rbt.Executable>
rbdock ($Id: //depot/dev/client3/rdock/2013.1/src/exe/rbdock.cxx#4 $)

>  <Rbt.Library>
libRbt.so (2013.1, Build901 2013/11/27)

>  <Rbt.Parameter_File>
/export/apps/rDock/src/rDock_2013.1_src/data/scripts/dock_solv.prm

>  <Rbt.Receptor>
prm/blind_docking_60.prm

>  <SCORE>
18.6765

>  <SCORE.INTER>
7.27774

>  <SCORE.INTER.CONST>
1

>  <SCORE.INTER.POLAR>
0

>  <SCORE.INTER.ROT>
6

>  <SCORE.INTER.SOLV>
17.6771

>  <SCORE.INTER.VDW>
-8.64052

>  <SCORE.INTER.norm>
0.214051

>  <SCORE.INTRA>
1.05742

>  <SCORE.INTRA.DIHEDRAL>
-6.619

>  <SCORE.INTRA.DIHEDRAL.0>
15.8194

>  <SCORE.INTRA.POLAR>
0

>  <SCORE.INTRA.POLAR.0>
0

>  <SCORE.INTRA.REPUL>
0

>  <SCORE.INTRA.REPUL.0>
0

>  <SCORE.INTRA.SOLV>
0.762182

>  <SCORE.INTRA.SOLV.lig_0>
-71.9159

>  <SCORE.INTRA.VDW>
3.98583

>  <SCORE.INTRA.VDW.0>
-3.53918

>  <SCORE.INTRA.norm>
0.0311005

>  <SCORE.RESTR>
10.3413

>  <SCORE.RESTR.CAVITY>
10.3413

>  <SCORE.RESTR.norm>
0.304156

>  <SCORE.SYSTEM>
0

>  <SCORE.SYSTEM.CONST>
0

>  <SCORE.SYSTEM.DIHEDRAL>
0

>  <SCORE.SYSTEM.SOLV>
0

>  <SCORE.SYSTEM.norm>
0

>  <SCORE.heavy>
34

>  <SCORE.norm>
0.549308

>  <RMSD>
9.184

$$$$
ligand
 OpenBabel01301917533D
libRbt.so/2013.1/901 2013/11/27
 34 36  0  0  0  0  0  0  0  0999 V2000
   18.7965   34.6325   34.4986 C   0  0  2  0  0  0  0  0  0  0  0  0
   18.4340   34.8523   35.8655 O   0  0  0  0  0  0  0  0  0  0  0  0
   16.6836   32.2158   38.7615 C   0  0  2  0  0  0  0  0  0  0  0  0
   15.7095   31.4092   39.5092 N   0  0  0  0  0  0  0  0  0  0  0  0
   16.5773   29.2533   38.0402 C   0  0  2  0  0  0  0  0  0  0  0  0
   20.0705   35.5040   34.1854 C   0  0  2  0  0  0  0  0  0  0  0  0
   21.1857   35.1419   35.0749 N   0  0  0  0  0  0  0  0  0  0  0  0
   16.1359   33.6871   38.6946 C   0  0  0  0  0  0  0  0  0  0  0  0
   17.4871   27.9621   38.0571 C   0  0  2  0  0  0  0  0  0  0  0  0
   18.6594   28.1958   38.8185 O   0  0  0  0  0  0  0  0  0  0  0  0
   19.7364   37.0189   34.3349 C   0  0  1  0  0  0  0  0  0  0  0  0
   20.8985   37.8193   34.0497 O   0  0  0  0  0  0  0  0  0  0  0  0
   17.1862   34.5518   37.9126 C   0  0  2  0  0  0  0  0  0  0  0  0
   16.7270   35.9660   37.8048 N   0  0  0  0  0  0  0  0  0  0  0  0
   17.8642   27.6077   36.5690 C   0  0  1  0  0  0  0  0  0  0  0  0
   18.7479   26.4256   36.5172 N   0  0  0  0  0  0  0  0  0  0  0  0
   18.5644   37.3561   33.3837 C   0  0  2  0  0  0  0  0  0  0  0  0
   18.2493   38.7475   33.4967 O   0  0  0  0  0  0  0  0  0  0  0  0
   17.4127   33.9863   36.4780 C   0  0  2  0  0  0  0  0  0  0  0  0
   16.5541   27.3430   35.7616 C   0  0  1  0  0  0  0  0  0  0  0  0
   15.8859   26.2274   36.3416 O   0  0  0  0  0  0  0  0  0  0  0  0
   17.3199   36.4428   33.7620 C   0  0  2  0  0  0  0  0  0  0  0  0
   17.6691   35.0091   33.6490 O   0  0  0  0  0  0  0  0  0  0  0  0
   17.8884   32.5116   36.5807 C   0  0  2  0  0  0  0  0  0  0  0  0
   18.0576   32.0094   35.2568 O   0  0  0  0  0  0  0  0  0  0  0  0
   15.6450   28.6112   35.8445 C   0  0  0  0  0  0  0  0  0  0  0  0
   15.3598   28.9793   37.2521 O   0  0  0  0  0  0  0  0  0  0  0  0
   16.0849   36.7061   32.8531 C   0  0  2  0  0  0  0  0  0  0  0  0
   14.9981   35.8787   33.2826 O   0  0  0  0  0  0  0  0  0  0  0  0
   16.8465   31.6187   37.2989 C   0  0  1  0  0  0  0  0  0  0  0  0
   17.3883   30.2711   37.3705 O   0  0  0  0  0  0  0  0  0  0  0  0
   16.3654   36.3861   31.4013 C   0  0  0  0  0  0  0  0  0  0  0  0
   16.8359   27.0106   34.2957 C   0  0  0  0  0  0  0  0  0  0  0  0
   20.1358   26.9161   36.3333 C   0  0  0  0  0  0  0  0  0  0  0  0
  1  2  1  1  0  0  0
  1  6  1  0  0  0  0
  1 23  1  0  0  0  0
  3  4  1  1  0  0  0
  3  8  1  0  0  0  0
  3 30  1  0  0  0  0
  5  9  1  0  0  0  0
  5 27  1  0  0  0  0
  5 31  1  6  0  0  0
  6  7  1  1  0  0  0
  6 11  1  0  0  0  0
  8 13  1  0  0  0  0
  9 10  1  1  0  0  0
  9 15  1  0  0  0  0
 11 12  1  6  0  0  0
 11 17  1  0  0  0  0
 13 14  1  6  0  0  0
 13 19  1  0  0  0  0
 15 16  1  1  0  0  0
 15 20  1  0  0  0  0
 16 34  1  0  0  0  0
 17 18  1  1  0  0  0
 17 22  1  0  0  0  0
 19  2  1  1  0  0  0
 19 24  1  0  0  0  0
 20 21  1  1  0  0  0
 20 26  1  0  0  0  0
 20 33  1  0  0  0  0
 22 23  1  6  0  0  0
 22 28  1  0  0  0  0
 24 25  1  6  0  0  0
 24 30  1  0  0  0  0
 26 27  1  0  0  0  0
 28 29  1  1  0  0  0
 28 32  1  0  0  0  0
 30 31  1  1  0  0  0
M  END
>  <CHROM.1>
-169.83000507,-176.06613199,-100.33294053,-178.20161051,63.36404400,-175.24578718
17.59240449,32.47134305,35.83685252,-1.26992068,-1.20209911,3.09409417

>  <Name>
ligand

>  <RI>
0

>  <Rbt.Current_Directory>
/home/itssahil/PROJECTS/Mol_Feturizer/New_Systems/rnas/4p3s

>  <Rbt.Executable>
rbdock ($Id: //depot/dev/client3/rdock/2013.1/src/exe/rbdock.cxx#4 $)

>  <Rbt.Library>
libRbt.so (2013.1, Build901 2013/11/27)

>  <Rbt.Parameter_File>
/export/apps/rDock/src/rDock_2013.1_src/data/scripts/dock_solv.prm

>  <Rbt.Receptor>
prm/pocket_docking_8.prm

>  <SCORE>
-8.25477

>  <SCORE.INTER>
-2.29877

>  <SCORE.INTER.CONST>
1

>  <SCORE.INTER.POLAR>
0

>  <SCORE.INTER.ROT>
6

>  <SCORE.INTER.SOLV>
8.42279

>  <SCORE.INTER.VDW>
-11.9401

>  <SCORE.INTER.norm>
-0.0676109

>  <SCORE.INTRA>
-5.956

>  <SCORE.INTRA.DIHEDRAL>
-14.0381

>  <SCORE.INTRA.DIHEDRAL.0>
15.8194

>  <SCORE.INTRA.POLAR>
0

>  <SCORE.INTRA.POLAR.0>
0

>  <SCORE.INTRA.REPUL>
0

>  <SCORE.INTRA.REPUL.0>
0

>  <SCORE.INTRA.SOLV>
-0.692176

>  <SCORE.INTRA.SOLV.lig_0>
-71.9159

>  <SCORE.INTRA.VDW>
1.40915

>  <SCORE.INTRA.VDW.0>
-3.53918

>  <SCORE.INTRA.norm>
-0.175176

>  <SCORE.RESTR>
0

>  <SCORE.RESTR.CAVITY>
0

>  <SCORE.RESTR.norm>
0

>  <SCORE.SYSTEM>
0

>  <SCORE.SYSTEM.CONST>
0

>  <SCORE.SYSTEM.DIHEDRAL>
0

>  <SCORE.SYSTEM.SOLV>
0

>  <SCORE.SYSTEM.norm>
0

>  <SCORE.heavy>
34

>  <SCORE.norm>
-0.242787

>  <RMSD>
9.185

$$$$
ligand
 OpenBabel01301917533D
libRbt.so/2013.1/901 2013/11/27
 34 36  0  0  0  0  0  0  0  0999 V2000
   18.2778   30.3087   35.2825 C   0  0  2  0  0  0  0  0  0  0  0  0
   17.6555   29.2180   35.9689 O   0  0  0  0  0  0  0  0  0  0  0  0
   15.8237   25.4662   34.9835 C   0  0  2  0  0  0  0  0  0  0  0  0
   14.9772   24.4485   34.3462 N   0  0  0  0  0  0  0  0  0  0  0  0
   17.2635   24.0528   32.4444 C   0  0  2  0  0  0  0  0  0  0  0  0
   19.3396   30.9529   36.2512 C   0  0  2  0  0  0  0  0  0  0  0  0
   20.3487   29.9617   36.6576 N   0  0  0  0  0  0  0  0  0  0  0  0
   14.8857   26.6221   35.4868 C   0  0  0  0  0  0  0  0  0  0  0  0
   17.6003   22.6028   32.9730 C   0  0  2  0  0  0  0  0  0  0  0  0
   16.8971   22.3415   34.1754 O   0  0  0  0  0  0  0  0  0  0  0  0
   18.6326   31.5436   37.5083 C   0  0  1  0  0  0  0  0  0  0  0  0
   19.5996   32.1334   38.3968 O   0  0  0  0  0  0  0  0  0  0  0  0
   15.7885   27.6993   36.1844 C   0  0  2  0  0  0  0  0  0  0  0  0
   14.9616   28.8347   36.6839 N   0  0  0  0  0  0  0  0  0  0  0  0
   19.1541   22.5188   33.2199 C   0  0  1  0  0  0  0  0  0  0  0  0
   19.5316   21.1939   33.7518 N   0  0  0  0  0  0  0  0  0  0  0  0
   17.5851   32.5793   37.0372 C   0  0  2  0  0  0  0  0  0  0  0  0
   16.9318   33.1437   38.1786 O   0  0  0  0  0  0  0  0  0  0  0  0
   16.8570   28.2535   35.1941 C   0  0  2  0  0  0  0  0  0  0  0  0
   19.8984   22.7974   31.8757 C   0  0  1  0  0  0  0  0  0  0  0  0
   19.5294   21.7896   30.9400 O   0  0  0  0  0  0  0  0  0  0  0  0
   16.5510   31.8572   36.0701 C   0  0  2  0  0  0  0  0  0  0  0  0
   17.2469   31.2718   34.9026 O   0  0  0  0  0  0  0  0  0  0  0  0
   17.7214   27.0764   34.6660 C   0  0  2  0  0  0  0  0  0  0  0  0
   18.6683   27.6052   33.7401 O   0  0  0  0  0  0  0  0  0  0  0  0
   19.4697   24.2024   31.3430 C   0  0  0  0  0  0  0  0  0  0  0  0
   17.9982   24.2942   31.1871 O   0  0  0  0  0  0  0  0  0  0  0  0
   15.4540   32.8229   35.5368 C   0  0  2  0  0  0  0  0  0  0  0  0
   14.8137   33.4669   36.6438 O   0  0  0  0  0  0  0  0  0  0  0  0
   16.8658   26.0218   33.9216 C   0  0  1  0  0  0  0  0  0  0  0  0
   17.7522   24.9528   33.4900 O   0  0  0  0  0  0  0  0  0  0  0  0
   14.3897   32.0966   34.7441 C   0  0  0  0  0  0  0  0  0  0  0  0
   21.4186   22.7535   32.0370 C   0  0  0  0  0  0  0  0  0  0  0  0
   19.7530   21.3473   35.2106 C   0  0  0  0  0  0  0  0  0  0  0  0
  1  2  1  1  0  0  0
  1  6  1  0  0  0  0
  1 23  1  0  0  0  0
  3  4  1  6  0  0  0
  3  8  1  0  0  0  0
  3 30  1  0  0  0  0
  5  9  1  0  0  0  0
  5 27  1  0  0  0  0
  5 31  1  1  0  0  0
  6  7  1  1  0  0  0
  6 11  1  0  0  0  0
  8 13  1  0  0  0  0
  9 10  1  1  0  0  0
  9 15  1  0  0  0  0
 11 12  1  1  0  0  0
 11 17  1  0  0  0  0
 13 14  1  6  0  0  0
 13 19  1  0  0  0  0
 15 16  1  6  0  0  0
 15 20  1  0  0  0  0
 16 34  1  0  0  0  0
 17 18  1  1  0  0  0
 17 22  1  0  0  0  0
 19  2  1  1  0  0  0
 19 24  1  0  0  0  0
 20 21  1  6  0  0  0
 20 26  1  0  0  0  0
 20 33  1  0  0  0  0
 22 23  1  6  0  0  0
 22 28  1  0  0  0  0
 24 25  1  6  0  0  0
 24 30  1  0  0  0  0
 26 27  1  0  0  0  0
 28 29  1  1  0  0  0
 28 32  1  0  0  0  0
 30 31  1  1  0  0  0
M  END
>  <CHROM.1>
-165.87920526,-151.82983425,-102.23674403,-54.11179228,82.16808370,-133.26074024
17.64393986,27.31335523,34.73418665,-1.75536984,0.03509440,-2.73786473

>  <Name>
ligand

>  <RI>
0

>  <Rbt.Current_Directory>
/home/itssahil/PROJECTS/Mol_Feturizer/New_Systems/rnas/4p3s

>  <Rbt.Executable>
rbdock ($Id: //depot/dev/client3/rdock/2013.1/src/exe/rbdock.cxx#4 $)

>  <Rbt.Library>
libRbt.so (2013.1, Build901 2013/11/27)

>  <Rbt.Parameter_File>
/export/apps/rDock/src/rDock_2013.1_src/data/scripts/dock_solv.prm

>  <Rbt.Receptor>
prm/pocket_docking_7.prm

>  <SCORE>
-17.5025

>  <SCORE.INTER>
-17.0763

>  <SCORE.INTER.CONST>
1

>  <SCORE.INTER.POLAR>
0

>  <SCORE.INTER.ROT>
6

>  <SCORE.INTER.SOLV>
12.6332

>  <SCORE.INTER.VDW>
-23.1953

>  <SCORE.INTER.norm>
-0.502245

>  <SCORE.INTRA>
-0.426194

>  <SCORE.INTRA.DIHEDRAL>
-1.97069

>  <SCORE.INTRA.DIHEDRAL.0>
15.8194

>  <SCORE.INTRA.POLAR>
0

>  <SCORE.INTRA.POLAR.0>
0

>  <SCORE.INTRA.REPUL>
0

>  <SCORE.INTRA.REPUL.0>
0

>  <SCORE.INTRA.SOLV>
2.02818

>  <SCORE.INTRA.SOLV.lig_0>
-71.9159

>  <SCORE.INTRA.VDW>
-0.454938

>  <SCORE.INTRA.VDW.0>
-3.53918

>  <SCORE.INTRA.norm>
-0.0125351

>  <SCORE.RESTR>
0

>  <SCORE.RESTR.CAVITY>
0

>  <SCORE.RESTR.norm>
0

>  <SCORE.SYSTEM>
0

>  <SCORE.SYSTEM.CONST>
0

>  <SCORE.SYSTEM.DIHEDRAL>
0

>  <SCORE.SYSTEM.SOLV>
0

>  <SCORE.SYSTEM.norm>
0

>  <SCORE.heavy>
34

>  <SCORE.norm>
-0.51478

>  <RMSD>
9.208

$$$$
ligand
 OpenBabel01301917533D
libRbt.so/2013.1/901 2013/11/27
 34 36  0  0  0  0  0  0  0  0999 V2000
   21.4614   27.8466   36.7465 C   0  0  2  0  0  0  0  0  0  0  0  0
   20.2310   28.0501   37.4485 O   0  0  0  0  0  0  0  0  0  0  0  0
   16.1946   27.0398   36.4047 C   0  0  2  0  0  0  0  0  0  0  0  0
   14.8662   27.0593   35.7775 N   0  0  0  0  0  0  0  0  0  0  0  0
   17.4066   25.1721   33.3478 C   0  0  2  0  0  0  0  0  0  0  0  0
   22.6185   27.7427   37.8100 C   0  0  2  0  0  0  0  0  0  0  0  0
   22.3737   26.6332   38.7454 N   0  0  0  0  0  0  0  0  0  0  0  0
   16.4492   28.4584   37.0307 C   0  0  0  0  0  0  0  0  0  0  0  0
   16.6015   23.8773   32.9347 C   0  0  2  0  0  0  0  0  0  0  0  0
   15.2076   24.1080   33.0462 O   0  0  0  0  0  0  0  0  0  0  0  0
   22.7518   29.0837   38.5930 C   0  0  1  0  0  0  0  0  0  0  0  0
   23.8084   28.9931   39.5665 O   0  0  0  0  0  0  0  0  0  0  0  0
   17.8600   28.4305   37.7171 C   0  0  2  0  0  0  0  0  0  0  0  0
   18.1724   29.7529   38.3305 N   0  0  0  0  0  0  0  0  0  0  0  0
   17.0386   22.7022   33.8889 C   0  0  1  0  0  0  0  0  0  0  0  0
   16.2925   21.4664   33.5776 N   0  0  0  0  0  0  0  0  0  0  0  0
   23.0101   30.2192   37.5752 C   0  0  2  0  0  0  0  0  0  0  0  0
   23.1479   31.4595   38.2758 O   0  0  0  0  0  0  0  0  0  0  0  0
   18.9731   28.0806   36.6836 C   0  0  2  0  0  0  0  0  0  0  0  0
   18.5740   22.4645   33.7326 C   0  0  1  0  0  0  0  0  0  0  0  0
   18.8350   22.0810   32.3864 O   0  0  0  0  0  0  0  0  0  0  0  0
   21.8038   30.2634   36.5413 C   0  0  2  0  0  0  0  0  0  0  0  0
   21.6717   28.9693   35.8355 O   0  0  0  0  0  0  0  0  0  0  0  0
   18.6538   26.7053   36.0370 C   0  0  2  0  0  0  0  0  0  0  0  0
   19.6682   26.4240   35.0749 O   0  0  0  0  0  0  0  0  0  0  0  0
   19.3269   23.7929   34.0642 C   0  0  0  0  0  0  0  0  0  0  0  0
   18.8526   24.9091   33.2113 O   0  0  0  0  0  0  0  0  0  0  0  0
   21.9746   31.3768   35.4682 C   0  0  2  0  0  0  0  0  0  0  0  0
   22.0542   32.6501   36.1182 O   0  0  0  0  0  0  0  0  0  0  0  0
   17.2908   26.7166   35.3018 C   0  0  1  0  0  0  0  0  0  0  0  0
   17.0680   25.3876   34.7553 O   0  0  0  0  0  0  0  0  0  0  0  0
   20.8118   31.4217   34.5015 C   0  0  0  0  0  0  0  0  0  0  0  0
   19.0816   21.3473   34.6452 C   0  0  0  0  0  0  0  0  0  0  0  0
   15.1987   21.3451   34.5724 C   0  0  0  0  0  0  0  0  0  0  0  0
  1  2  1  1  0  0  0
  1  6  1  0  0  0  0
  1 23  1  0  0  0  0
  3  4  1  6  0  0  0
  3  8  1  0  0  0  0
  3 30  1  0  0  0  0
  5  9  1  0  0  0  0
  5 27  1  0  0  0  0
  5 31  1  1  0  0  0
  6  7  1  1  0  0  0
  6 11  1  0  0  0  0
  8 13  1  0  0  0  0
  9 10  1  1  0  0  0
  9 15  1  0  0  0  0
 11 12  1  1  0  0  0
 11 17  1  0  0  0  0
 13 14  1  6  0  0  0
 13 19  1  0  0  0  0
 15 16  1  6  0  0  0
 15 20  1  0  0  0  0
 16 34  1  0  0  0  0
 17 18  1  1  0  0  0
 17 22  1  0  0  0  0
 19  2  1  1  0  0  0
 19 24  1  0  0  0  0
 20 21  1  6  0  0  0
 20 26  1  0  0  0  0
 20 33  1  0  0  0  0
 22 23  1  6  0  0  0
 22 28  1  0  0  0  0
 24 25  1  6  0  0  0
 24 30  1  0  0  0  0
 26 27  1  0  0  0  0
 28 29  1  1  0  0  0
 28 32  1  0  0  0  0
 30 31  1  1  0  0  0
M  END
>  <CHROM.1>
-175.49957389,-175.53521915,-100.06328717,-59.68644179,147.06354656,-160.33269335
19.29580155,26.82872738,35.74128864,-0.98214916,0.21465940,-2.81063036

>  <Name>
ligand

>  <RI>
0

>  <Rbt.Current_Directory>
/home/itssahil/PROJECTS/Mol_Feturizer/New_Systems/rnas/4p3s

>  <Rbt.Executable>
rbdock ($Id: //depot/dev/client3/rdock/2013.1/src/exe/rbdock.cxx#4 $)

>  <Rbt.Library>
libRbt.so (2013.1, Build901 2013/11/27)

>  <Rbt.Parameter_File>
/export/apps/rDock/src/rDock_2013.1_src/data/scripts/dock_solv.prm

>  <Rbt.Receptor>
prm/pocket_docking_4.prm

>  <SCORE>
-12.079

>  <SCORE.INTER>
-7.74246

>  <SCORE.INTER.CONST>
1

>  <SCORE.INTER.POLAR>
0

>  <SCORE.INTER.ROT>
6

>  <SCORE.INTER.SOLV>
15.0291

>  <SCORE.INTER.VDW>
-17.7713

>  <SCORE.INTER.norm>
-0.227719

>  <SCORE.INTRA>
-4.33651

>  <SCORE.INTRA.DIHEDRAL>
-8.79549

>  <SCORE.INTRA.DIHEDRAL.0>
15.8194

>  <SCORE.INTRA.POLAR>
0

>  <SCORE.INTRA.POLAR.0>
0

>  <SCORE.INTRA.REPUL>
0

>  <SCORE.INTRA.REPUL.0>
0

>  <SCORE.INTRA.SOLV>
-1.5476

>  <SCORE.INTRA.SOLV.lig_0>
-71.9159

>  <SCORE.INTRA.VDW>
0.835038

>  <SCORE.INTRA.VDW.0>
-3.53918

>  <SCORE.INTRA.norm>
-0.127544

>  <SCORE.RESTR>
0

>  <SCORE.RESTR.CAVITY>
0

>  <SCORE.RESTR.norm>
0

>  <SCORE.SYSTEM>
0

>  <SCORE.SYSTEM.CONST>
0

>  <SCORE.SYSTEM.DIHEDRAL>
0

>  <SCORE.SYSTEM.SOLV>
0

>  <SCORE.SYSTEM.norm>
0

>  <SCORE.heavy>
34

>  <SCORE.norm>
-0.355264

>  <RMSD>
9.214

$$$$
ligand
 OpenBabel01301917533D
libRbt.so/2013.1/901 2013/11/27
 34 36  0  0  0  0  0  0  0  0999 V2000
   18.9387   29.4486   36.1579 C   0  0  2  0  0  0  0  0  0  0  0  0
   17.7676   28.7093   36.5185 O   0  0  0  0  0  0  0  0  0  0  0  0
   15.9655   25.1436   34.9564 C   0  0  2  0  0  0  0  0  0  0  0  0
   15.2597   24.2054   34.0731 N   0  0  0  0  0  0  0  0  0  0  0  0
   19.3572   24.5568   33.2361 C   0  0  2  0  0  0  0  0  0  0  0  0
   19.4384   30.2243   37.4343 C   0  0  2  0  0  0  0  0  0  0  0  0
   19.7405   29.2906   38.5312 N   0  0  0  0  0  0  0  0  0  0  0  0
   15.0375   26.3943   35.1655 C   0  0  0  0  0  0  0  0  0  0  0  0
   18.8148   24.1779   31.8016 C   0  0  2  0  0  0  0  0  0  0  0  0
   17.8112   25.0933   31.3973 O   0  0  0  0  0  0  0  0  0  0  0  0
   18.3646   31.2574   37.8910 C   0  0  1  0  0  0  0  0  0  0  0  0
   18.8173   31.9687   39.0579 O   0  0  0  0  0  0  0  0  0  0  0  0
   15.7841   27.3869   36.1245 C   0  0  2  0  0  0  0  0  0  0  0  0
   14.9603   28.6062   36.3640 N   0  0  0  0  0  0  0  0  0  0  0  0
   18.2269   22.7177   31.8690 C   0  0  1  0  0  0  0  0  0  0  0  0
   17.6680   22.3146   30.5629 N   0  0  0  0  0  0  0  0  0  0  0  0
   18.0796   32.2178   36.7127 C   0  0  2  0  0  0  0  0  0  0  0  0
   17.1035   33.1836   37.1156 O   0  0  0  0  0  0  0  0  0  0  0  0
   17.1547   27.8173   35.5201 C   0  0  2  0  0  0  0  0  0  0  0  0
   19.3587   21.7334   32.3033 C   0  0  1  0  0  0  0  0  0  0  0  0
   20.3865   21.7671   31.3184 O   0  0  0  0  0  0  0  0  0  0  0  0
   17.5789   31.3657   35.4680 C   0  0  2  0  0  0  0  0  0  0  0  0
   18.5972   30.3667   35.0739 O   0  0  0  0  0  0  0  0  0  0  0  0
   18.0185   26.5524   35.2643 C   0  0  2  0  0  0  0  0  0  0  0  0
   19.2519   26.9707   34.6833 O   0  0  0  0  0  0  0  0  0  0  0  0
   19.9274   22.1951   33.6835 C   0  0  0  0  0  0  0  0  0  0  0  0
   20.4078   23.5966   33.6273 O   0  0  0  0  0  0  0  0  0  0  0  0
   17.2687   32.2470   34.2241 C   0  0  2  0  0  0  0  0  0  0  0  0
   16.2240   33.1707   34.5490 O   0  0  0  0  0  0  0  0  0  0  0  0
   17.3334   25.5769   34.2757 C   0  0  1  0  0  0  0  0  0  0  0  0
   18.1991   24.4188   34.1202 O   0  0  0  0  0  0  0  0  0  0  0  0
   16.8083   31.4239   33.0412 C   0  0  0  0  0  0  0  0  0  0  0  0
   18.8604   20.2916   32.4118 C   0  0  0  0  0  0  0  0  0  0  0  0
   16.2376   21.9832   30.7749 C   0  0  0  0  0  0  0  0  0  0  0  0
  1  2  1  1  0  0  0
  1  6  1  0  0  0  0
  1 23  1  0  0  0  0
  3  4  1  6  0  0  0
  3  8  1  0  0  0  0
  3 30  1  0  0  0  0
  5  9  1  0  0  0  0
  5 27  1  0  0  0  0
  5 31  1  1  0  0  0
  6  7  1  1  0  0  0
  6 11  1  0  0  0  0
  8 13  1  0  0  0  0
  9 10  1  1  0  0  0
  9 15  1  0  0  0  0
 11 12  1  1  0  0  0
 11 17  1  0  0  0  0
 13 14  1  6  0  0  0
 13 19  1  0  0  0  0
 15 16  1  6  0  0  0
 15 20  1  0  0  0  0
 16 34  1  0  0  0  0
 17 18  1  1  0  0  0
 17 22  1  0  0  0  0
 19  2  1  1  0  0  0
 19 24  1  0  0  0  0
 20 21  1  6  0  0  0
 20 26  1  0  0  0  0
 20 33  1  0  0  0  0
 22 23  1  6  0  0  0
 22 28  1  0  0  0  0
 24 25  1  6  0  0  0
 24 30  1  0  0  0  0
 26 27  1  0  0  0  0
 28 29  1  1  0  0  0
 28 32  1  0  0  0  0
 30 31  1  1  0  0  0
M  END
>  <CHROM.1>
-175.72106879,-169.66943796,-121.52824293,-61.12404842,165.85136903,-87.76978494
17.91794256,27.02901065,34.55441334,-1.66831422,0.63019436,-2.63349193

>  <Name>
ligand

>  <RI>
0

>  <Rbt.Current_Directory>
/home/itssahil/PROJECTS/Mol_Feturizer/New_Systems/rnas/4p3s

>  <Rbt.Executable>
rbdock ($Id: //depot/dev/client3/rdock/2013.1/src/exe/rbdock.cxx#4 $)

>  <Rbt.Library>
libRbt.so (2013.1, Build901 2013/11/27)

>  <Rbt.Parameter_File>
/export/apps/rDock/src/rDock_2013.1_src/data/scripts/dock_solv.prm

>  <Rbt.Receptor>
prm/pocket_docking_7.prm

>  <SCORE>
-13.128

>  <SCORE.INTER>
-8.34432

>  <SCORE.INTER.CONST>
1

>  <SCORE.INTER.POLAR>
0

>  <SCORE.INTER.ROT>
6

>  <SCORE.INTER.SOLV>
14.542

>  <SCORE.INTER.VDW>
-18.0102

>  <SCORE.INTER.norm>
-0.245421

>  <SCORE.INTRA>
-4.7837

>  <SCORE.INTRA.DIHEDRAL>
-9.81344

>  <SCORE.INTRA.DIHEDRAL.0>
15.8194

>  <SCORE.INTRA.POLAR>
0

>  <SCORE.INTRA.POLAR.0>
0

>  <SCORE.INTRA.REPUL>
0

>  <SCORE.INTRA.REPUL.0>
0

>  <SCORE.INTRA.SOLV>
-0.351618

>  <SCORE.INTRA.SOLV.lig_0>
-71.9159

>  <SCORE.INTRA.VDW>
0.298822

>  <SCORE.INTRA.VDW.0>
-3.53918

>  <SCORE.INTRA.norm>
-0.140697

>  <SCORE.RESTR>
0

>  <SCORE.RESTR.CAVITY>
0

>  <SCORE.RESTR.norm>
0

>  <SCORE.SYSTEM>
0

>  <SCORE.SYSTEM.CONST>
0

>  <SCORE.SYSTEM.DIHEDRAL>
0

>  <SCORE.SYSTEM.SOLV>
0

>  <SCORE.SYSTEM.norm>
0

>  <SCORE.heavy>
34

>  <SCORE.norm>
-0.386118

>  <RMSD>
9.228

$$$$
ligand
 OpenBabel01301917533D
libRbt.so/2013.1/901 2013/11/27
 34 36  0  0  0  0  0  0  0  0999 V2000
   18.0877   29.6424   37.1245 C   0  0  2  0  0  0  0  0  0  0  0  0
   18.1369   28.2192   36.9824 O   0  0  0  0  0  0  0  0  0  0  0  0
   15.5877   25.3372   35.0854 C   0  0  2  0  0  0  0  0  0  0  0  0
   14.7107   24.6731   34.1116 N   0  0  0  0  0  0  0  0  0  0  0  0
   17.1401   23.4262   33.0531 C   0  0  2  0  0  0  0  0  0  0  0  0
   18.9237   30.2791   35.9512 C   0  0  2  0  0  0  0  0  0  0  0  0
   18.3829   29.8767   34.6429 N   0  0  0  0  0  0  0  0  0  0  0  0
   14.9824   26.7560   35.3850 C   0  0  0  0  0  0  0  0  0  0  0  0
   17.6988   21.9607   33.2414 C   0  0  2  0  0  0  0  0  0  0  0  0
   17.1474   21.3694   34.4054 O   0  0  0  0  0  0  0  0  0  0  0  0
   20.4195   29.8566   36.0652 C   0  0  1  0  0  0  0  0  0  0  0  0
   21.1874   30.4364   34.9944 O   0  0  0  0  0  0  0  0  0  0  0  0
   15.9092   27.4568   36.4396 C   0  0  2  0  0  0  0  0  0  0  0  0
   15.3961   28.8174   36.7686 N   0  0  0  0  0  0  0  0  0  0  0  0
   19.2674   22.0451   33.3624 C   0  0  1  0  0  0  0  0  0  0  0  0
   19.8515   20.7058   33.5776 N   0  0  0  0  0  0  0  0  0  0  0  0
   20.9473   30.2995   37.4499 C   0  0  2  0  0  0  0  0  0  0  0  0
   22.3249   29.9313   37.5705 O   0  0  0  0  0  0  0  0  0  0  0  0
   17.3655   27.5861   35.8996 C   0  0  2  0  0  0  0  0  0  0  0  0
   19.8441   22.6872   32.0611 C   0  0  1  0  0  0  0  0  0  0  0  0
   19.5155   21.8457   30.9606 O   0  0  0  0  0  0  0  0  0  0  0  0
   20.0595   29.6170   38.5777 C   0  0  2  0  0  0  0  0  0  0  0  0
   18.6382   30.0016   38.4293 O   0  0  0  0  0  0  0  0  0  0  0  0
   17.9070   26.1730   35.5511 C   0  0  2  0  0  0  0  0  0  0  0  0
   19.2265   26.3221   35.0309 O   0  0  0  0  0  0  0  0  0  0  0  0
   19.1997   24.0971   31.8654 C   0  0  0  0  0  0  0  0  0  0  0  0
   17.7199   24.0135   31.8294 O   0  0  0  0  0  0  0  0  0  0  0  0
   20.5117   30.0068   40.0143 C   0  0  2  0  0  0  0  0  0  0  0  0
   21.8838   29.6386   40.1932 O   0  0  0  0  0  0  0  0  0  0  0  0
   17.0451   25.4760   34.4696 C   0  0  1  0  0  0  0  0  0  0  0  0
   17.6103   24.1577   34.2304 O   0  0  0  0  0  0  0  0  0  0  0  0
   19.7002   29.3030   41.0795 C   0  0  0  0  0  0  0  0  0  0  0  0
   21.3667   22.8229   32.1094 C   0  0  0  0  0  0  0  0  0  0  0  0
   20.2833   20.6318   34.9949 C   0  0  0  0  0  0  0  0  0  0  0  0
  1  2  1  6  0  0  0
  1  6  1  0  0  0  0
  1 23  1  0  0  0  0
  3  4  1  6  0  0  0
  3  8  1  0  0  0  0
  3 30  1  0  0  0  0
  5  9  1  0  0  0  0
  5 27  1  0  0  0  0
  5 31  1  1  0  0  0
  6  7  1  6  0  0  0
  6 11  1  0  0  0  0
  8 13  1  0  0  0  0
  9 10  1  1  0  0  0
  9 15  1  0  0  0  0
 11 12  1  6  0  0  0
 11 17  1  0  0  0  0
 13 14  1  6  0  0  0
 13 19  1  0  0  0  0
 15 16  1  6  0  0  0
 15 20  1  0  0  0  0
 16 34  1  0  0  0  0
 17 18  1  1  0  0  0
 17 22  1  0  0  0  0
 19  2  1  1  0  0  0
 19 24  1  0  0  0  0
 20 21  1  6  0  0  0
 20 26  1  0  0  0  0
 20 33  1  0  0  0  0
 22 23  1  6  0  0  0
 22 28  1  0  0  0  0
 24 25  1  6  0  0  0
 24 30  1  0  0  0  0
 26 27  1  0  0  0  0
 28 29  1  6  0  0  0
 28 32  1  0  0  0  0
 30 31  1  1  0  0  0
M  END
>  <CHROM.1>
-72.85555992,-82.19655227,-106.54221122,-57.88810561,77.27376626,-168.70412639
18.68996341,26.32824413,35.40409574,1.42933777,-0.07787862,0.59417201

>  <Name>
ligand

>  <RI>
0

>  <Rbt.Current_Directory>
/home/itssahil/PROJECTS/Mol_Feturizer/New_Systems/rnas/4p3s

>  <Rbt.Executable>
rbdock ($Id: //depot/dev/client3/rdock/2013.1/src/exe/rbdock.cxx#4 $)

>  <Rbt.Library>
libRbt.so (2013.1, Build901 2013/11/27)

>  <Rbt.Parameter_File>
/export/apps/rDock/src/rDock_2013.1_src/data/scripts/dock_solv.prm

>  <Rbt.Receptor>
prm/pocket_docking_5.prm

>  <SCORE>
-13.9298

>  <SCORE.INTER>
-11.2528

>  <SCORE.INTER.CONST>
1

>  <SCORE.INTER.POLAR>
0

>  <SCORE.INTER.ROT>
6

>  <SCORE.INTER.SOLV>
13.2089

>  <SCORE.INTER.VDW>
-19.5048

>  <SCORE.INTER.norm>
-0.330963

>  <SCORE.INTRA>
-2.67704

>  <SCORE.INTRA.DIHEDRAL>
-9.71735

>  <SCORE.INTRA.DIHEDRAL.0>
15.8194

>  <SCORE.INTRA.POLAR>
0

>  <SCORE.INTRA.POLAR.0>
0

>  <SCORE.INTRA.REPUL>
0

>  <SCORE.INTRA.REPUL.0>
0

>  <SCORE.INTRA.SOLV>
3.02789

>  <SCORE.INTRA.SOLV.lig_0>
-71.9159

>  <SCORE.INTRA.VDW>
0.667688

>  <SCORE.INTRA.VDW.0>
-3.53918

>  <SCORE.INTRA.norm>
-0.0787365

>  <SCORE.RESTR>
0

>  <SCORE.RESTR.CAVITY>
0

>  <SCORE.RESTR.norm>
0

>  <SCORE.SYSTEM>
0

>  <SCORE.SYSTEM.CONST>
0

>  <SCORE.SYSTEM.DIHEDRAL>
0

>  <SCORE.SYSTEM.SOLV>
0

>  <SCORE.SYSTEM.norm>
0

>  <SCORE.heavy>
34

>  <SCORE.norm>
-0.4097

>  <RMSD>
9.245

$$$$
ligand
 OpenBabel01301917533D
libRbt.so/2013.1/901 2013/11/27
 34 36  0  0  0  0  0  0  0  0999 V2000
   20.6356   29.7548   32.9945 C   0  0  2  0  0  0  0  0  0  0  0  0
   19.2371   30.0427   32.8965 O   0  0  0  0  0  0  0  0  0  0  0  0
   17.7322   26.7629   35.2160 C   0  0  2  0  0  0  0  0  0  0  0  0
   16.8232   25.7837   35.8272 N   0  0  0  0  0  0  0  0  0  0  0  0
   17.5912   24.0548   33.8658 C   0  0  2  0  0  0  0  0  0  0  0  0
   21.2608   30.7298   34.0619 C   0  0  2  0  0  0  0  0  0  0  0  0
   20.6107   30.5608   35.3715 N   0  0  0  0  0  0  0  0  0  0  0  0
   17.1814   28.1974   35.5445 C   0  0  0  0  0  0  0  0  0  0  0  0
   18.6955   22.9412   34.0546 C   0  0  2  0  0  0  0  0  0  0  0  0
   19.6511   23.3537   35.0165 O   0  0  0  0  0  0  0  0  0  0  0  0
   21.1275   32.2074   33.5846 C   0  0  1  0  0  0  0  0  0  0  0  0
   21.6976   33.1021   34.5576 O   0  0  0  0  0  0  0  0  0  0  0  0
   18.1635   29.2426   34.9078 C   0  0  2  0  0  0  0  0  0  0  0  0
   17.6975   30.6330   35.1760 N   0  0  0  0  0  0  0  0  0  0  0  0
   19.3918   22.6993   32.6621 C   0  0  1  0  0  0  0  0  0  0  0  0
   20.4641   21.6905   32.7781 N   0  0  0  0  0  0  0  0  0  0  0  0
   21.8242   32.3407   32.2102 C   0  0  2  0  0  0  0  0  0  0  0  0
   21.7237   33.6950   31.7588 O   0  0  0  0  0  0  0  0  0  0  0  0
   18.2698   29.0368   33.3665 C   0  0  2  0  0  0  0  0  0  0  0  0
   18.3165   22.2337   31.6299 C   0  0  1  0  0  0  0  0  0  0  0  0
   17.7612   21.0033   32.0829 O   0  0  0  0  0  0  0  0  0  0  0  0
   21.1394   31.3327   31.1899 C   0  0  2  0  0  0  0  0  0  0  0  0
   21.2448   29.9401   31.6795 O   0  0  0  0  0  0  0  0  0  0  0  0
   18.7518   27.5892   33.0777 C   0  0  2  0  0  0  0  0  0  0  0  0
   18.8102   27.4176   31.6632 O   0  0  0  0  0  0  0  0  0  0  0  0
   17.1989   23.3219   31.5395 C   0  0  0  0  0  0  0  0  0  0  0  0
   16.6036   23.5956   32.8695 O   0  0  0  0  0  0  0  0  0  0  0  0
   21.7774   31.3894   29.7721 C   0  0  2  0  0  0  0  0  0  0  0  0
   21.8983   32.7564   29.3635 O   0  0  0  0  0  0  0  0  0  0  0  0
   17.7728   26.5318   33.6453 C   0  0  1  0  0  0  0  0  0  0  0  0
   18.3180   25.2162   33.3511 O   0  0  0  0  0  0  0  0  0  0  0  0
   20.9389   30.6694   28.7391 C   0  0  0  0  0  0  0  0  0  0  0  0
   18.9127   21.9962   30.2417 C   0  0  0  0  0  0  0  0  0  0  0  0
   21.6710   22.2472   32.1191 C   0  0  0  0  0  0  0  0  0  0  0  0
  1  2  1  6  0  0  0
  1  6  1  0  0  0  0
  1 23  1  0  0  0  0
  3  4  1  1  0  0  0
  3  8  1  0  0  0  0
  3 30  1  0  0  0  0
  5  9  1  0  0  0  0
  5 27  1  0  0  0  0
  5 31  1  6  0  0  0
  6  7  1  1  0  0  0
  6 11  1  0  0  0  0
  8 13  1  0  0  0  0
  9 10  1  1  0  0  0
  9 15  1  0  0  0  0
 11 12  1  1  0  0  0
 11 17  1  0  0  0  0
 13 14  1  6  0  0  0
 13 19  1  0  0  0  0
 15 16  1  1  0  0  0
 15 20  1  0  0  0  0
 16 34  1  0  0  0  0
 17 18  1  6  0  0  0
 17 22  1  0  0  0  0
 19  2  1  1  0  0  0
 19 24  1  0  0  0  0
 20 21  1  1  0  0  0
 20 26  1  0  0  0  0
 20 33  1  0  0  0  0
 22 23  1  1  0  0  0
 22 28  1  0  0  0  0
 24 25  1  6  0  0  0
 24 30  1  0  0  0  0
 26 27  1  0  0  0  0
 28 29  1  6  0  0  0
 28 32  1  0  0  0  0
 30 31  1  1  0  0  0
M  END
>  <CHROM.1>
-112.42944518,82.84885979,-131.24554490,-47.76181189,61.17400523,-152.09551287
19.45581158,27.47590454,32.87166404,-1.03455678,-1.00398143,-2.74056293

>  <Name>
ligand

>  <RI>
0

>  <Rbt.Current_Directory>
/home/itssahil/PROJECTS/Mol_Feturizer/New_Systems/rnas/4p3s

>  <Rbt.Executable>
rbdock ($Id: //depot/dev/client3/rdock/2013.1/src/exe/rbdock.cxx#4 $)

>  <Rbt.Library>
libRbt.so (2013.1, Build901 2013/11/27)

>  <Rbt.Parameter_File>
/export/apps/rDock/src/rDock_2013.1_src/data/scripts/dock_solv.prm

>  <Rbt.Receptor>
prm/blind_docking_60.prm

>  <SCORE>
12.6207

>  <SCORE.INTER>
-5.0471

>  <SCORE.INTER.CONST>
1

>  <SCORE.INTER.POLAR>
0

>  <SCORE.INTER.ROT>
6

>  <SCORE.INTER.SOLV>
14.9648

>  <SCORE.INTER.VDW>
-15.953

>  <SCORE.INTER.norm>
-0.148444

>  <SCORE.INTRA>
3.21925

>  <SCORE.INTRA.DIHEDRAL>
-1.66658

>  <SCORE.INTRA.DIHEDRAL.0>
15.8194

>  <SCORE.INTRA.POLAR>
0

>  <SCORE.INTRA.POLAR.0>
0

>  <SCORE.INTRA.REPUL>
0

>  <SCORE.INTRA.REPUL.0>
0

>  <SCORE.INTRA.SOLV>
4.19821

>  <SCORE.INTRA.SOLV.lig_0>
-71.9159

>  <SCORE.INTRA.VDW>
1.95344

>  <SCORE.INTRA.VDW.0>
-3.53918

>  <SCORE.INTRA.norm>
0.094684

>  <SCORE.RESTR>
14.4485

>  <SCORE.RESTR.CAVITY>
14.4485

>  <SCORE.RESTR.norm>
0.424956

>  <SCORE.SYSTEM>
0

>  <SCORE.SYSTEM.CONST>
0

>  <SCORE.SYSTEM.DIHEDRAL>
0

>  <SCORE.SYSTEM.SOLV>
0

>  <SCORE.SYSTEM.norm>
0

>  <SCORE.heavy>
34

>  <SCORE.norm>
0.371196

>  <RMSD>
9.246

$$$$
ligand
 OpenBabel01301917533D
libRbt.so/2013.1/901 2013/11/27
 34 36  0  0  0  0  0  0  0  0999 V2000
   18.0823   29.6566   37.1196 C   0  0  2  0  0  0  0  0  0  0  0  0
   18.1331   28.2334   36.9783 O   0  0  0  0  0  0  0  0  0  0  0  0
   15.5930   25.3473   35.0754 C   0  0  2  0  0  0  0  0  0  0  0  0
   14.7192   24.6818   34.0996 N   0  0  0  0  0  0  0  0  0  0  0  0
   17.1316   23.4266   33.0631 C   0  0  2  0  0  0  0  0  0  0  0  0
   18.9222   30.2934   35.9492 C   0  0  2  0  0  0  0  0  0  0  0  0
   18.3866   29.8900   34.6390 N   0  0  0  0  0  0  0  0  0  0  0  0
   14.9847   26.7651   35.3737 C   0  0  0  0  0  0  0  0  0  0  0  0
   17.6905   21.9624   33.2608 C   0  0  2  0  0  0  0  0  0  0  0  0
   17.1544   21.3860   34.4393 O   0  0  0  0  0  0  0  0  0  0  0  0
   20.4179   29.8722   36.0689 C   0  0  1  0  0  0  0  0  0  0  0  0
   21.1894   30.4521   35.0008 O   0  0  0  0  0  0  0  0  0  0  0  0
   15.9079   27.4674   36.4304 C   0  0  2  0  0  0  0  0  0  0  0  0
   15.3919   28.8271   36.7582 N   0  0  0  0  0  0  0  0  0  0  0  0
   19.2608   22.0454   33.3590 C   0  0  1  0  0  0  0  0  0  0  0  0
   19.8455   20.7077   33.5817 N   0  0  0  0  0  0  0  0  0  0  0  0
   20.9401   30.3161   37.4554 C   0  0  2  0  0  0  0  0  0  0  0  0
   22.3176   29.9490   37.5814 O   0  0  0  0  0  0  0  0  0  0  0  0
   17.3653   27.5990   35.8937 C   0  0  2  0  0  0  0  0  0  0  0  0
   19.8203   22.6710   32.0423 C   0  0  1  0  0  0  0  0  0  0  0  0
   19.4749   21.8172   30.9564 O   0  0  0  0  0  0  0  0  0  0  0  0
   20.0486   29.6334   38.5802 C   0  0  2  0  0  0  0  0  0  0  0  0
   18.6275   30.0168   38.4263 O   0  0  0  0  0  0  0  0  0  0  0  0
   17.9099   26.1869   35.5464 C   0  0  2  0  0  0  0  0  0  0  0  0
   19.2302   26.3382   35.0292 O   0  0  0  0  0  0  0  0  0  0  0  0
   19.1756   24.0798   31.8389 C   0  0  0  0  0  0  0  0  0  0  0  0
   17.6953   23.9985   31.8245 O   0  0  0  0  0  0  0  0  0  0  0  0
   20.4951   30.0242   40.0184 C   0  0  2  0  0  0  0  0  0  0  0  0
   21.8560   29.6247   40.2147 O   0  0  0  0  0  0  0  0  0  0  0  0
   17.0515   25.4885   34.4629 C   0  0  1  0  0  0  0  0  0  0  0  0
   17.6195   24.1712   34.2249 O   0  0  0  0  0  0  0  0  0  0  0  0
   19.6559   29.3489   41.0805 C   0  0  0  0  0  0  0  0  0  0  0  0
   21.3436   22.8045   32.0677 C   0  0  0  0  0  0  0  0  0  0  0  0
   20.2377   20.6264   35.0101 C   0  0  0  0  0  0  0  0  0  0  0  0
  1  2  1  6  0  0  0
  1  6  1  0  0  0  0
  1 23  1  0  0  0  0
  3  4  1  6  0  0  0
  3  8  1  0  0  0  0
  3 30  1  0  0  0  0
  5  9  1  0  0  0  0
  5 27  1  0  0  0  0
  5 31  1  1  0  0  0
  6  7  1  6  0  0  0
  6 11  1  0  0  0  0
  8 13  1  0  0  0  0
  9 10  1  1  0  0  0
  9 15  1  0  0  0  0
 11 12  1  6  0  0  0
 11 17  1  0  0  0  0
 13 14  1  6  0  0  0
 13 19  1  0  0  0  0
 15 16  1  6  0  0  0
 15 20  1  0  0  0  0
 16 34  1  0  0  0  0
 17 18  1  1  0  0  0
 17 22  1  0  0  0  0
 19  2  1  1  0  0  0
 19 24  1  0  0  0  0
 20 21  1  6  0  0  0
 20 26  1  0  0  0  0
 20 33  1  0  0  0  0
 22 23  1  6  0  0  0
 22 28  1  0  0  0  0
 24 25  1  6  0  0  0
 24 30  1  0  0  0  0
 26 27  1  0  0  0  0
 28 29  1  1  0  0  0
 28 32  1  0  0  0  0
 30 31  1  1  0  0  0
M  END
>  <CHROM.1>
-72.91574357,-82.25430646,-103.88123342,-59.42461072,75.96113903,-168.19178540
18.68076067,26.33520132,35.40268487,1.42988282,-0.07969724,0.59352757

>  <Name>
ligand

>  <RI>
0

>  <Rbt.Current_Directory>
/home/itssahil/PROJECTS/Mol_Feturizer/New_Systems/rnas/4p3s

>  <Rbt.Executable>
rbdock ($Id: //depot/dev/client3/rdock/2013.1/src/exe/rbdock.cxx#4 $)

>  <Rbt.Library>
libRbt.so (2013.1, Build901 2013/11/27)

>  <Rbt.Parameter_File>
/export/apps/rDock/src/rDock_2013.1_src/data/scripts/dock_solv.prm

>  <Rbt.Receptor>
prm/pocket_docking_8.prm

>  <SCORE>
-13.9252

>  <SCORE.INTER>
-11.2404

>  <SCORE.INTER.CONST>
1

>  <SCORE.INTER.POLAR>
0

>  <SCORE.INTER.ROT>
6

>  <SCORE.INTER.SOLV>
13.1764

>  <SCORE.INTER.VDW>
-19.4857

>  <SCORE.INTER.norm>
-0.3306

>  <SCORE.INTRA>
-2.6848

>  <SCORE.INTRA.DIHEDRAL>
-9.9074

>  <SCORE.INTRA.DIHEDRAL.0>
15.8194

>  <SCORE.INTRA.POLAR>
0

>  <SCORE.INTRA.POLAR.0>
0

>  <SCORE.INTRA.REPUL>
0

>  <SCORE.INTRA.REPUL.0>
0

>  <SCORE.INTRA.SOLV>
3.05222

>  <SCORE.INTRA.SOLV.lig_0>
-71.9159

>  <SCORE.INTRA.VDW>
0.742785

>  <SCORE.INTRA.VDW.0>
-3.53918

>  <SCORE.INTRA.norm>
-0.0789647

>  <SCORE.RESTR>
0

>  <SCORE.RESTR.CAVITY>
0

>  <SCORE.RESTR.norm>
0

>  <SCORE.SYSTEM>
0

>  <SCORE.SYSTEM.CONST>
0

>  <SCORE.SYSTEM.DIHEDRAL>
0

>  <SCORE.SYSTEM.SOLV>
0

>  <SCORE.SYSTEM.norm>
0

>  <SCORE.heavy>
34

>  <SCORE.norm>
-0.409565

>  <RMSD>
9.252

$$$$
ligand
 OpenBabel01301917533D
libRbt.so/2013.1/901 2013/11/27
 34 36  0  0  0  0  0  0  0  0999 V2000
   18.0529   29.6858   37.2323 C   0  0  2  0  0  0  0  0  0  0  0  0
   18.1445   28.2694   37.0490 O   0  0  0  0  0  0  0  0  0  0  0  0
   15.6234   25.3904   35.1105 C   0  0  2  0  0  0  0  0  0  0  0  0
   14.7542   24.7311   34.1264 N   0  0  0  0  0  0  0  0  0  0  0  0
   17.1593   23.4947   33.0882 C   0  0  2  0  0  0  0  0  0  0  0  0
   18.8518   30.3814   36.0668 C   0  0  2  0  0  0  0  0  0  0  0  0
   18.3055   29.9991   34.7548 N   0  0  0  0  0  0  0  0  0  0  0  0
   15.0060   26.8006   35.4257 C   0  0  0  0  0  0  0  0  0  0  0  0
   17.7109   22.0275   33.2843 C   0  0  2  0  0  0  0  0  0  0  0  0
   17.1779   21.4552   34.4662 O   0  0  0  0  0  0  0  0  0  0  0  0
   20.3616   30.0036   36.1488 C   0  0  1  0  0  0  0  0  0  0  0  0
   21.0958   30.6373   35.0850 O   0  0  0  0  0  0  0  0  0  0  0  0
   15.9244   27.4960   36.4911 C   0  0  2  0  0  0  0  0  0  0  0  0
   15.3997   28.8483   36.8351 N   0  0  0  0  0  0  0  0  0  0  0  0
   19.2821   22.1017   33.3740 C   0  0  1  0  0  0  0  0  0  0  0  0
   19.8604   20.7609   33.5949 N   0  0  0  0  0  0  0  0  0  0  0  0
   20.8947   30.4239   37.5385 C   0  0  2  0  0  0  0  0  0  0  0  0
   22.2848   30.0963   37.6304 O   0  0  0  0  0  0  0  0  0  0  0  0
   17.3811   27.6434   35.9566 C   0  0  2  0  0  0  0  0  0  0  0  0
   19.8381   22.7229   32.0537 C   0  0  1  0  0  0  0  0  0  0  0  0
   19.4821   21.8701   30.9705 O   0  0  0  0  0  0  0  0  0  0  0  0
   20.0447   29.6821   38.6581 C   0  0  2  0  0  0  0  0  0  0  0  0
   18.6101   30.0255   38.5395 O   0  0  0  0  0  0  0  0  0  0  0  0
   17.9348   26.2390   35.5925 C   0  0  2  0  0  0  0  0  0  0  0  0
   19.2543   26.4049   35.0776 O   0  0  0  0  0  0  0  0  0  0  0  0
   19.2004   24.1351   31.8525 C   0  0  0  0  0  0  0  0  0  0  0  0
   17.7196   24.0622   31.8461 O   0  0  0  0  0  0  0  0  0  0  0  0
   20.5048   30.0455   40.0991 C   0  0  2  0  0  0  0  0  0  0  0  0
   19.7077   29.3241   41.0448 O   0  0  0  0  0  0  0  0  0  0  0  0
   17.0812   25.5483   34.5004 C   0  0  1  0  0  0  0  0  0  0  0  0
   17.6576   24.2375   34.2467 O   0  0  0  0  0  0  0  0  0  0  0  0
   20.3503   31.5215   40.3930 C   0  0  0  0  0  0  0  0  0  0  0  0
   21.3623   22.8477   32.0708 C   0  0  0  0  0  0  0  0  0  0  0  0
   20.2572   20.6776   35.0219 C   0  0  0  0  0  0  0  0  0  0  0  0
  1  2  1  6  0  0  0
  1  6  1  0  0  0  0
  1 23  1  0  0  0  0
  3  4  1  6  0  0  0
  3  8  1  0  0  0  0
  3 30  1  0  0  0  0
  5  9  1  0  0  0  0
  5 27  1  0  0  0  0
  5 31  1  1  0  0  0
  6  7  1  6  0  0  0
  6 11  1  0  0  0  0
  8 13  1  0  0  0  0
  9 10  1  1  0  0  0
  9 15  1  0  0  0  0
 11 12  1  6  0  0  0
 11 17  1  0  0  0  0
 13 14  1  6  0  0  0
 13 19  1  0  0  0  0
 15 16  1  6  0  0  0
 15 20  1  0  0  0  0
 16 34  1  0  0  0  0
 17 18  1  6  0  0  0
 17 22  1  0  0  0  0
 19  2  1  1  0  0  0
 19 24  1  0  0  0  0
 20 21  1  6  0  0  0
 20 26  1  0  0  0  0
 20 33  1  0  0  0  0
 22 23  1  1  0  0  0
 22 28  1  0  0  0  0
 24 25  1  6  0  0  0
 24 30  1  0  0  0  0
 26 27  1  0  0  0  0
 28 29  1  1  0  0  0
 28 32  1  0  0  0  0
 30 31  1  1  0  0  0
M  END
>  <CHROM.1>
-72.69107810,-80.39573226,-103.76432243,-179.10129734,74.99382742,-167.11342615
18.63280735,26.45218701,35.45616199,1.45924895,0.00190822,0.59970213

>  <Name>
ligand

>  <RI>
0

>  <Rbt.Current_Directory>
/home/itssahil/PROJECTS/Mol_Feturizer/New_Systems/rnas/4p3s

>  <Rbt.Executable>
rbdock ($Id: //depot/dev/client3/rdock/2013.1/src/exe/rbdock.cxx#4 $)

>  <Rbt.Library>
libRbt.so (2013.1, Build901 2013/11/27)

>  <Rbt.Parameter_File>
/export/apps/rDock/src/rDock_2013.1_src/data/scripts/dock_solv.prm

>  <Rbt.Receptor>
prm/pocket_docking_5.prm

>  <SCORE>
-13.7069

>  <SCORE.INTER>
-11.2409

>  <SCORE.INTER.CONST>
1

>  <SCORE.INTER.POLAR>
0

>  <SCORE.INTER.ROT>
6

>  <SCORE.INTER.SOLV>
12.8995

>  <SCORE.INTER.VDW>
-19.3938

>  <SCORE.INTER.norm>
-0.330615

>  <SCORE.INTRA>
-2.46596

>  <SCORE.INTRA.DIHEDRAL>
-10.2563

>  <SCORE.INTRA.DIHEDRAL.0>
15.8194

>  <SCORE.INTRA.POLAR>
0

>  <SCORE.INTRA.POLAR.0>
0

>  <SCORE.INTRA.REPUL>
0

>  <SCORE.INTRA.REPUL.0>
0

>  <SCORE.INTRA.SOLV>
2.96829

>  <SCORE.INTRA.SOLV.lig_0>
-71.9159

>  <SCORE.INTRA.VDW>
1.17805

>  <SCORE.INTRA.VDW.0>
-3.53918

>  <SCORE.INTRA.norm>
-0.0725284

>  <SCORE.RESTR>
0

>  <SCORE.RESTR.CAVITY>
0

>  <SCORE.RESTR.norm>
0

>  <SCORE.SYSTEM>
0

>  <SCORE.SYSTEM.CONST>
0

>  <SCORE.SYSTEM.DIHEDRAL>
0

>  <SCORE.SYSTEM.SOLV>
0

>  <SCORE.SYSTEM.norm>
0

>  <SCORE.heavy>
34

>  <SCORE.norm>
-0.403144

>  <RMSD>
9.257

$$$$
ligand
 OpenBabel01301917533D
libRbt.so/2013.1/901 2013/11/27
 34 36  0  0  0  0  0  0  0  0999 V2000
   21.1563   36.6678   29.3827 C   0  0  2  0  0  0  0  0  0  0  0  0
   21.1466   35.9989   30.6478 O   0  0  0  0  0  0  0  0  0  0  0  0
   21.4066   31.9496   32.0400 C   0  0  2  0  0  0  0  0  0  0  0  0
   21.7494   30.5244   32.1380 N   0  0  0  0  0  0  0  0  0  0  0  0
   22.4358   31.9886   34.5387 C   0  0  2  0  0  0  0  0  0  0  0  0
   21.2952   38.2139   29.6493 C   0  0  2  0  0  0  0  0  0  0  0  0
   22.5300   38.5094   30.3936 N   0  0  0  0  0  0  0  0  0  0  0  0
   20.7651   32.1914   30.6260 C   0  0  0  0  0  0  0  0  0  0  0  0
   21.3930   33.1074   34.9336 C   0  0  2  0  0  0  0  0  0  0  0  0
   20.6027   33.4617   33.8118 O   0  0  0  0  0  0  0  0  0  0  0  0
   20.0567   38.7377   30.4372 C   0  0  1  0  0  0  0  0  0  0  0  0
   20.1796   40.1507   30.6833 O   0  0  0  0  0  0  0  0  0  0  0  0
   20.3817   33.7100   30.5297 C   0  0  2  0  0  0  0  0  0  0  0  0
   19.7697   34.0146   29.2049 N   0  0  0  0  0  0  0  0  0  0  0  0
   22.1919   34.3606   35.4565 C   0  0  1  0  0  0  0  0  0  0  0  0
   21.2725   35.4610   35.8098 N   0  0  0  0  0  0  0  0  0  0  0  0
   18.7847   38.4096   29.6208 C   0  0  2  0  0  0  0  0  0  0  0  0
   17.6350   38.8938   30.3221 O   0  0  0  0  0  0  0  0  0  0  0  0
   21.6376   34.6127   30.7226 C   0  0  2  0  0  0  0  0  0  0  0  0
   23.0403   33.9410   36.6984 C   0  0  1  0  0  0  0  0  0  0  0  0
   22.1528   33.5050   37.7230 O   0  0  0  0  0  0  0  0  0  0  0  0
   18.7127   36.8379   29.3958 C   0  0  2  0  0  0  0  0  0  0  0  0
   19.9144   36.3561   28.6790 O   0  0  0  0  0  0  0  0  0  0  0  0
   22.2836   34.2995   32.0995 C   0  0  2  0  0  0  0  0  0  0  0  0
   23.4458   35.1145   32.2371 O   0  0  0  0  0  0  0  0  0  0  0  0
   23.9944   32.7739   36.2872 C   0  0  0  0  0  0  0  0  0  0  0  0
   23.2364   31.6300   35.7258 O   0  0  0  0  0  0  0  0  0  0  0  0
   17.4630   36.4065   28.5757 C   0  0  2  0  0  0  0  0  0  0  0  0
   16.3813   37.3010   28.8584 O   0  0  0  0  0  0  0  0  0  0  0  0
   22.7254   32.8190   32.2055 C   0  0  1  0  0  0  0  0  0  0  0  0
   23.2906   32.6161   33.5299 O   0  0  0  0  0  0  0  0  0  0  0  0
   17.0085   35.0056   28.9215 C   0  0  0  0  0  0  0  0  0  0  0  0
   23.8641   35.1031   37.2550 C   0  0  0  0  0  0  0  0  0  0  0  0
   20.8464   36.1077   34.5445 C   0  0  0  0  0  0  0  0  0  0  0  0
  1  2  1  1  0  0  0
  1  6  1  0  0  0  0
  1 23  1  0  0  0  0
  3  4  1  6  0  0  0
  3  8  1  0  0  0  0
  3 30  1  0  0  0  0
  5  9  1  0  0  0  0
  5 27  1  0  0  0  0
  5 31  1  6  0  0  0
  6  7  1  1  0  0  0
  6 11  1  0  0  0  0
  8 13  1  0  0  0  0
  9 10  1  6  0  0  0
  9 15  1  0  0  0  0
 11 12  1  6  0  0  0
 11 17  1  0  0  0  0
 13 14  1  6  0  0  0
 13 19  1  0  0  0  0
 15 16  1  1  0  0  0
 15 20  1  0  0  0  0
 16 34  1  0  0  0  0
 17 18  1  1  0  0  0
 17 22  1  0  0  0  0
 19  2  1  1  0  0  0
 19 24  1  0  0  0  0
 20 21  1  1  0  0  0
 20 26  1  0  0  0  0
 20 33  1  0  0  0  0
 22 23  1  6  0  0  0
 22 28  1  0  0  0  0
 24 25  1  6  0  0  0
 24 30  1  0  0  0  0
 26 27  1  0  0  0  0
 28 29  1  1  0  0  0
 28 32  1  0  0  0  0
 30 31  1  1  0  0  0
M  END
>  <CHROM.1>
-152.19429573,-92.46964794,-77.77961817,-32.05145933,-15.23430488,-73.43359746
21.00663215,35.04576339,32.18178862,-2.78818297,1.05831852,-2.92042797

>  <Name>
ligand

>  <RI>
0

>  <Rbt.Current_Directory>
/home/itssahil/PROJECTS/Mol_Feturizer/New_Systems/rnas/4p3s

>  <Rbt.Executable>
rbdock ($Id: //depot/dev/client3/rdock/2013.1/src/exe/rbdock.cxx#4 $)

>  <Rbt.Library>
libRbt.so (2013.1, Build901 2013/11/27)

>  <Rbt.Parameter_File>
/export/apps/rDock/src/rDock_2013.1_src/data/scripts/dock_solv.prm

>  <Rbt.Receptor>
prm/blind_docking_60.prm

>  <SCORE>
22.4405

>  <SCORE.INTER>
1.08889

>  <SCORE.INTER.CONST>
1

>  <SCORE.INTER.POLAR>
0

>  <SCORE.INTER.ROT>
6

>  <SCORE.INTER.SOLV>
15.6059

>  <SCORE.INTER.VDW>
-12.076

>  <SCORE.INTER.norm>
0.0320261

>  <SCORE.INTRA>
12.7866

>  <SCORE.INTRA.DIHEDRAL>
1.05828

>  <SCORE.INTRA.DIHEDRAL.0>
15.8194

>  <SCORE.INTRA.POLAR>
0

>  <SCORE.INTRA.POLAR.0>
0

>  <SCORE.INTRA.REPUL>
0

>  <SCORE.INTRA.REPUL.0>
0

>  <SCORE.INTRA.SOLV>
5.97545

>  <SCORE.INTRA.SOLV.lig_0>
-71.9159

>  <SCORE.INTRA.VDW>
9.26972

>  <SCORE.INTRA.VDW.0>
-3.53918

>  <SCORE.INTRA.norm>
0.376076

>  <SCORE.RESTR>
8.56506

>  <SCORE.RESTR.CAVITY>
8.56506

>  <SCORE.RESTR.norm>
0.251913

>  <SCORE.SYSTEM>
0

>  <SCORE.SYSTEM.CONST>
0

>  <SCORE.SYSTEM.DIHEDRAL>
0

>  <SCORE.SYSTEM.SOLV>
0

>  <SCORE.SYSTEM.norm>
0

>  <SCORE.heavy>
34

>  <SCORE.norm>
0.660015

>  <RMSD>
9.258

$$$$
ligand
 OpenBabel01301917533D
libRbt.so/2013.1/901 2013/11/27
 34 36  0  0  0  0  0  0  0  0999 V2000
   18.0646   29.6235   37.1495 C   0  0  2  0  0  0  0  0  0  0  0  0
   18.1411   28.2037   36.9868 O   0  0  0  0  0  0  0  0  0  0  0  0
   15.6021   25.3185   35.0812 C   0  0  2  0  0  0  0  0  0  0  0  0
   14.7283   24.6536   34.1049 N   0  0  0  0  0  0  0  0  0  0  0  0
   17.1310   23.3957   33.0737 C   0  0  2  0  0  0  0  0  0  0  0  0
   18.8690   30.2935   35.9727 C   0  0  2  0  0  0  0  0  0  0  0  0
   18.3167   29.8977   34.6673 N   0  0  0  0  0  0  0  0  0  0  0  0
   14.9929   26.7355   35.3817 C   0  0  0  0  0  0  0  0  0  0  0  0
   17.6864   21.9308   33.2756 C   0  0  2  0  0  0  0  0  0  0  0  0
   17.1563   21.3624   34.4606 O   0  0  0  0  0  0  0  0  0  0  0  0
   20.3749   29.9010   36.0582 C   0  0  1  0  0  0  0  0  0  0  0  0
   21.1140   30.5112   34.9842 O   0  0  0  0  0  0  0  0  0  0  0  0
   15.9161   27.4370   36.4390 C   0  0  2  0  0  0  0  0  0  0  0  0
   15.3994   28.7958   36.7689 N   0  0  0  0  0  0  0  0  0  0  0  0
   19.2576   22.0091   33.3629 C   0  0  1  0  0  0  0  0  0  0  0  0
   19.8394   20.6708   33.5889 N   0  0  0  0  0  0  0  0  0  0  0  0
   20.9145   30.3359   37.4409 C   0  0  2  0  0  0  0  0  0  0  0  0
   22.3012   29.9951   37.5356 O   0  0  0  0  0  0  0  0  0  0  0  0
   17.3732   27.5703   35.9017 C   0  0  2  0  0  0  0  0  0  0  0  0
   19.8104   22.6259   32.0391 C   0  0  1  0  0  0  0  0  0  0  0  0
   19.4550   21.7675   30.9602 O   0  0  0  0  0  0  0  0  0  0  0  0
   20.0585   29.6197   38.5723 C   0  0  2  0  0  0  0  0  0  0  0  0
   18.6274   29.9764   38.4508 O   0  0  0  0  0  0  0  0  0  0  0  0
   17.9186   26.1590   35.5523 C   0  0  2  0  0  0  0  0  0  0  0  0
   19.2386   26.3119   35.0347 O   0  0  0  0  0  0  0  0  0  0  0  0
   19.1689   24.0356   31.8325 C   0  0  0  0  0  0  0  0  0  0  0  0
   17.6883   23.9591   31.8283 O   0  0  0  0  0  0  0  0  0  0  0  0
   20.5246   29.9993   40.0073 C   0  0  2  0  0  0  0  0  0  0  0  0
   20.6802   31.4201   40.0923 O   0  0  0  0  0  0  0  0  0  0  0  0
   17.0602   25.4615   34.4683 C   0  0  1  0  0  0  0  0  0  0  0  0
   17.6289   24.1448   34.2282 O   0  0  0  0  0  0  0  0  0  0  0  0
   21.8512   29.3655   40.3635 C   0  0  0  0  0  0  0  0  0  0  0  0
   21.3342   22.7545   32.0537 C   0  0  0  0  0  0  0  0  0  0  0  0
   20.2678   20.6063   35.0078 C   0  0  0  0  0  0  0  0  0  0  0  0
  1  2  1  6  0  0  0
  1  6  1  0  0  0  0
  1 23  1  0  0  0  0
  3  4  1  6  0  0  0
  3  8  1  0  0  0  0
  3 30  1  0  0  0  0
  5  9  1  0  0  0  0
  5 27  1  0  0  0  0
  5 31  1  1  0  0  0
  6  7  1  6  0  0  0
  6 11  1  0  0  0  0
  8 13  1  0  0  0  0
  9 10  1  1  0  0  0
  9 15  1  0  0  0  0
 11 12  1  6  0  0  0
 11 17  1  0  0  0  0
 13 14  1  6  0  0  0
 13 19  1  0  0  0  0
 15 16  1  6  0  0  0
 15 20  1  0  0  0  0
 16 34  1  0  0  0  0
 17 18  1  6  0  0  0
 17 22  1  0  0  0  0
 19  2  1  1  0  0  0
 19 24  1  0  0  0  0
 20 21  1  6  0  0  0
 20 26  1  0  0  0  0
 20 33  1  0  0  0  0
 22 23  1  1  0  0  0
 22 28  1  0  0  0  0
 24 25  1  6  0  0  0
 24 30  1  0  0  0  0
 26 27  1  0  0  0  0
 28 29  1  6  0  0  0
 28 32  1  0  0  0  0
 30 31  1  1  0  0  0
M  END
>  <CHROM.1>
-72.47499933,-80.80692879,-105.08649533,47.34010959,75.33743778,-167.77721952
18.70406324,26.37568461,35.37950087,1.41821562,-0.08492293,0.56834581

>  <Name>
ligand

>  <RI>
0

>  <Rbt.Current_Directory>
/home/itssahil/PROJECTS/Mol_Feturizer/New_Systems/rnas/4p3s

>  <Rbt.Executable>
rbdock ($Id: //depot/dev/client3/rdock/2013.1/src/exe/rbdock.cxx#4 $)

>  <Rbt.Library>
libRbt.so (2013.1, Build901 2013/11/27)

>  <Rbt.Parameter_File>
/export/apps/rDock/src/rDock_2013.1_src/data/scripts/dock_solv.prm

>  <Rbt.Receptor>
prm/pocket_docking_5.prm

>  <SCORE>
-13.4099

>  <SCORE.INTER>
-11.2352

>  <SCORE.INTER.CONST>
1

>  <SCORE.INTER.POLAR>
0

>  <SCORE.INTER.ROT>
6

>  <SCORE.INTER.SOLV>
13.0203

>  <SCORE.INTER.VDW>
-19.4303

>  <SCORE.INTER.norm>
-0.330449

>  <SCORE.INTRA>
-2.17466

>  <SCORE.INTRA.DIHEDRAL>
-9.66958

>  <SCORE.INTRA.DIHEDRAL.0>
15.8194

>  <SCORE.INTRA.POLAR>
0

>  <SCORE.INTRA.POLAR.0>
0

>  <SCORE.INTRA.REPUL>
0

>  <SCORE.INTRA.REPUL.0>
0

>  <SCORE.INTRA.SOLV>
3.32897

>  <SCORE.INTRA.SOLV.lig_0>
-71.9159

>  <SCORE.INTRA.VDW>
0.995645

>  <SCORE.INTRA.VDW.0>
-3.53918

>  <SCORE.INTRA.norm>
-0.0639607

>  <SCORE.RESTR>
0

>  <SCORE.RESTR.CAVITY>
0

>  <SCORE.RESTR.norm>
0

>  <SCORE.SYSTEM>
0

>  <SCORE.SYSTEM.CONST>
0

>  <SCORE.SYSTEM.DIHEDRAL>
0

>  <SCORE.SYSTEM.SOLV>
0

>  <SCORE.SYSTEM.norm>
0

>  <SCORE.heavy>
34

>  <SCORE.norm>
-0.394409

>  <RMSD>
9.278

$$$$
ligand
 OpenBabel01301917533D
libRbt.so/2013.1/901 2013/11/27
 34 36  0  0  0  0  0  0  0  0999 V2000
   21.2506   33.3897   32.9645 C   0  0  2  0  0  0  0  0  0  0  0  0
   22.1484   33.3105   31.8528 O   0  0  0  0  0  0  0  0  0  0  0  0
   22.5878   35.3735   28.1174 C   0  0  2  0  0  0  0  0  0  0  0  0
   22.3167   35.9131   26.7781 N   0  0  0  0  0  0  0  0  0  0  0  0
   20.9555   38.3622   28.4912 C   0  0  2  0  0  0  0  0  0  0  0  0
   21.4612   32.1070   33.8541 C   0  0  2  0  0  0  0  0  0  0  0  0
   22.8525   32.0179   34.3255 N   0  0  0  0  0  0  0  0  0  0  0  0
   22.3481   33.8214   28.0657 C   0  0  0  0  0  0  0  0  0  0  0  0
   20.6171   39.5297   29.5000 C   0  0  2  0  0  0  0  0  0  0  0  0
   21.7926   40.2471   29.8349 O   0  0  0  0  0  0  0  0  0  0  0  0
   21.0854   30.8263   33.0494 C   0  0  1  0  0  0  0  0  0  0  0  0
   21.2765   29.6513   33.8588 O   0  0  0  0  0  0  0  0  0  0  0  0
   22.6567   33.2435   29.4916 C   0  0  2  0  0  0  0  0  0  0  0  0
   22.4434   31.7683   29.5184 N   0  0  0  0  0  0  0  0  0  0  0  0
   19.9794   38.8926   30.7922 C   0  0  1  0  0  0  0  0  0  0  0  0
   19.6720   39.9324   31.7948 N   0  0  0  0  0  0  0  0  0  0  0  0
   19.6190   30.9604   32.5763 C   0  0  2  0  0  0  0  0  0  0  0  0
   19.2493   29.7874   31.8445 O   0  0  0  0  0  0  0  0  0  0  0  0
   21.7420   33.9030   30.5675 C   0  0  2  0  0  0  0  0  0  0  0  0
   18.6814   38.1224   30.3920 C   0  0  1  0  0  0  0  0  0  0  0  0
   17.7579   39.0543   29.8387 O   0  0  0  0  0  0  0  0  0  0  0  0
   19.4866   32.2702   31.6858 C   0  0  2  0  0  0  0  0  0  0  0  0
   19.8830   33.4696   32.4568 O   0  0  0  0  0  0  0  0  0  0  0  0
   21.9554   35.4410   30.5444 C   0  0  2  0  0  0  0  0  0  0  0  0
   21.0858   36.0217   31.5141 O   0  0  0  0  0  0  0  0  0  0  0  0
   19.0459   37.0373   29.3283 C   0  0  0  0  0  0  0  0  0  0  0  0
   19.7142   37.6400   28.1501 O   0  0  0  0  0  0  0  0  0  0  0  0
   18.0387   32.4959   31.1632 C   0  0  2  0  0  0  0  0  0  0  0  0
   17.6548   31.3867   30.3433 O   0  0  0  0  0  0  0  0  0  0  0  0
   21.6046   36.0509   29.1648 C   0  0  1  0  0  0  0  0  0  0  0  0
   21.8595   37.4810   29.2317 O   0  0  0  0  0  0  0  0  0  0  0  0
   17.9221   33.7520   30.3282 C   0  0  0  0  0  0  0  0  0  0  0  0
   18.0113   37.4555   31.5941 C   0  0  0  0  0  0  0  0  0  0  0  0
   20.8452   40.0414   32.6961 C   0  0  0  0  0  0  0  0  0  0  0  0
  1  2  1  6  0  0  0
  1  6  1  0  0  0  0
  1 23  1  0  0  0  0
  3  4  1  6  0  0  0
  3  8  1  0  0  0  0
  3 30  1  0  0  0  0
  5  9  1  0  0  0  0
  5 27  1  0  0  0  0
  5 31  1  1  0  0  0
  6  7  1  6  0  0  0
  6 11  1  0  0  0  0
  8 13  1  0  0  0  0
  9 10  1  1  0  0  0
  9 15  1  0  0  0  0
 11 12  1  1  0  0  0
 11 17  1  0  0  0  0
 13 14  1  6  0  0  0
 13 19  1  0  0  0  0
 15 16  1  1  0  0  0
 15 20  1  0  0  0  0
 16 34  1  0  0  0  0
 17 18  1  6  0  0  0
 17 22  1  0  0  0  0
 19  2  1  1  0  0  0
 19 24  1  0  0  0  0
 20 21  1  6  0  0  0
 20 26  1  0  0  0  0
 20 33  1  0  0  0  0
 22 23  1  1  0  0  0
 22 28  1  0  0  0  0
 24 25  1  1  0  0  0
 24 30  1  0  0  0  0
 26 27  1  0  0  0  0
 28 29  1  6  0  0  0
 28 32  1  0  0  0  0
 30 31  1  1  0  0  0
M  END
>  <CHROM.1>
148.23832678,-161.01134360,-92.68376045,-61.01425844,100.24097151,134.49334164
20.54986795,35.02894500,30.76530179,1.51682753,-0.79037313,2.78799568

>  <Name>
ligand

>  <RI>
0

>  <Rbt.Current_Directory>
/home/itssahil/PROJECTS/Mol_Feturizer/New_Systems/rnas/4p3s

>  <Rbt.Executable>
rbdock ($Id: //depot/dev/client3/rdock/2013.1/src/exe/rbdock.cxx#4 $)

>  <Rbt.Library>
libRbt.so (2013.1, Build901 2013/11/27)

>  <Rbt.Parameter_File>
/export/apps/rDock/src/rDock_2013.1_src/data/scripts/dock_solv.prm

>  <Rbt.Receptor>
prm/blind_docking_100.prm

>  <SCORE>
12.4704

>  <SCORE.INTER>
7.0685

>  <SCORE.INTER.CONST>
1

>  <SCORE.INTER.POLAR>
0

>  <SCORE.INTER.ROT>
6

>  <SCORE.INTER.SOLV>
18.1957

>  <SCORE.INTER.VDW>
-8.95288

>  <SCORE.INTER.norm>
0.207897

>  <SCORE.INTRA>
3.61348

>  <SCORE.INTRA.DIHEDRAL>
2.05154

>  <SCORE.INTRA.DIHEDRAL.0>
15.8194

>  <SCORE.INTRA.POLAR>
0

>  <SCORE.INTRA.POLAR.0>
0

>  <SCORE.INTRA.REPUL>
0

>  <SCORE.INTRA.REPUL.0>
0

>  <SCORE.INTRA.SOLV>
1.19667

>  <SCORE.INTRA.SOLV.lig_0>
-71.9159

>  <SCORE.INTRA.VDW>
1.98938

>  <SCORE.INTRA.VDW.0>
-3.53918

>  <SCORE.INTRA.norm>
0.106279

>  <SCORE.RESTR>
1.7884

>  <SCORE.RESTR.CAVITY>
1.7884

>  <SCORE.RESTR.norm>
0.0525999

>  <SCORE.SYSTEM>
0

>  <SCORE.SYSTEM.CONST>
0

>  <SCORE.SYSTEM.DIHEDRAL>
0

>  <SCORE.SYSTEM.SOLV>
0

>  <SCORE.SYSTEM.norm>
0

>  <SCORE.heavy>
34

>  <SCORE.norm>
0.366776

>  <RMSD>
9.304

$$$$
ligand
 OpenBabel01301917533D
libRbt.so/2013.1/901 2013/11/27
 34 36  0  0  0  0  0  0  0  0999 V2000
   21.9112   34.4168   35.7082 C   0  0  2  0  0  0  0  0  0  0  0  0
   21.3659   33.1863   35.2218 O   0  0  0  0  0  0  0  0  0  0  0  0
   21.5666   33.2415   30.9370 C   0  0  2  0  0  0  0  0  0  0  0  0
   21.2089   33.1024   29.5188 N   0  0  0  0  0  0  0  0  0  0  0  0
   20.0836   36.0531   29.8515 C   0  0  2  0  0  0  0  0  0  0  0  0
   23.4731   34.2477   35.8207 C   0  0  2  0  0  0  0  0  0  0  0  0
   24.0598   33.9094   34.5140 N   0  0  0  0  0  0  0  0  0  0  0  0
   21.3081   31.8571   31.6339 C   0  0  0  0  0  0  0  0  0  0  0  0
   20.6133   37.4807   29.4311 C   0  0  2  0  0  0  0  0  0  0  0  0
   21.9547   37.3953   28.9818 O   0  0  0  0  0  0  0  0  0  0  0  0
   23.8213   33.1451   36.8656 C   0  0  1  0  0  0  0  0  0  0  0  0
   25.2483   32.9871   36.9714 O   0  0  0  0  0  0  0  0  0  0  0  0
   21.7088   32.0012   33.1442 C   0  0  2  0  0  0  0  0  0  0  0  0
   21.4829   30.7203   33.8726 N   0  0  0  0  0  0  0  0  0  0  0  0
   20.5169   38.4291   30.6855 C   0  0  1  0  0  0  0  0  0  0  0  0
   21.0332   39.7758   30.3679 N   0  0  0  0  0  0  0  0  0  0  0  0
   23.1894   33.5404   38.2208 C   0  0  2  0  0  0  0  0  0  0  0  0
   23.5080   32.5456   39.1990 O   0  0  0  0  0  0  0  0  0  0  0  0
   20.8775   33.1248   33.8340 C   0  0  2  0  0  0  0  0  0  0  0  0
   19.0274   38.5126   31.1467 C   0  0  1  0  0  0  0  0  0  0  0  0
   18.2597   39.0758   30.0881 O   0  0  0  0  0  0  0  0  0  0  0  0
   21.6187   33.6888   38.0287 C   0  0  2  0  0  0  0  0  0  0  0  0
   21.3108   34.7138   37.0067 O   0  0  0  0  0  0  0  0  0  0  0  0
   21.1045   34.4629   33.0793 C   0  0  2  0  0  0  0  0  0  0  0  0
   20.3100   35.4653   33.7100 O   0  0  0  0  0  0  0  0  0  0  0  0
   18.5167   37.0712   31.4675 C   0  0  0  0  0  0  0  0  0  0  0  0
   18.6831   36.1684   30.3032 O   0  0  0  0  0  0  0  0  0  0  0  0
   20.8895   34.0912   39.3428 C   0  0  2  0  0  0  0  0  0  0  0  0
   20.3280   35.3993   39.1891 O   0  0  0  0  0  0  0  0  0  0  0  0
   20.6652   34.3703   31.5971 C   0  0  1  0  0  0  0  0  0  0  0  0
   20.9387   35.6536   30.9702 O   0  0  0  0  0  0  0  0  0  0  0  0
   21.8275   34.1257   40.5292 C   0  0  0  0  0  0  0  0  0  0  0  0
   18.8527   39.4030   32.3778 C   0  0  0  0  0  0  0  0  0  0  0  0
   22.4892   39.7721   30.6525 C   0  0  0  0  0  0  0  0  0  0  0  0
  1  2  1  1  0  0  0
  1  6  1  0  0  0  0
  1 23  1  0  0  0  0
  3  4  1  6  0  0  0
  3  8  1  0  0  0  0
  3 30  1  0  0  0  0
  5  9  1  0  0  0  0
  5 27  1  0  0  0  0
  5 31  1  1  0  0  0
  6  7  1  6  0  0  0
  6 11  1  0  0  0  0
  8 13  1  0  0  0  0
  9 10  1  1  0  0  0
  9 15  1  0  0  0  0
 11 12  1  1  0  0  0
 11 17  1  0  0  0  0
 13 14  1  1  0  0  0
 13 19  1  0  0  0  0
 15 16  1  6  0  0  0
 15 20  1  0  0  0  0
 16 34  1  0  0  0  0
 17 18  1  1  0  0  0
 17 22  1  0  0  0  0
 19  2  1  1  0  0  0
 19 24  1  0  0  0  0
 20 21  1  6  0  0  0
 20 26  1  0  0  0  0
 20 33  1  0  0  0  0
 22 23  1  6  0  0  0
 22 28  1  0  0  0  0
 24 25  1  1  0  0  0
 24 30  1  0  0  0  0
 26 27  1  0  0  0  0
 28 29  1  6  0  0  0
 28 32  1  0  0  0  0
 30 31  1  6  0  0  0
M  END
>  <CHROM.1>
-106.90674093,121.18325168,-88.99958178,114.32006708,93.48759659,178.67016309
21.28240998,35.12031074,33.68065484,0.76138459,-1.19879944,1.29652610

>  <Name>
ligand

>  <RI>
0

>  <Rbt.Current_Directory>
/home/itssahil/PROJECTS/Mol_Feturizer/New_Systems/rnas/4p3s

>  <Rbt.Executable>
rbdock ($Id: //depot/dev/client3/rdock/2013.1/src/exe/rbdock.cxx#4 $)

>  <Rbt.Library>
libRbt.so (2013.1, Build901 2013/11/27)

>  <Rbt.Parameter_File>
/export/apps/rDock/src/rDock_2013.1_src/data/scripts/dock_solv.prm

>  <Rbt.Receptor>
prm/blind_docking_60.prm

>  <SCORE>
23.5298

>  <SCORE.INTER>
2.85051

>  <SCORE.INTER.CONST>
1

>  <SCORE.INTER.POLAR>
0

>  <SCORE.INTER.ROT>
6

>  <SCORE.INTER.SOLV>
13.4861

>  <SCORE.INTER.VDW>
-10.195

>  <SCORE.INTER.norm>
0.0838386

>  <SCORE.INTRA>
12.4904

>  <SCORE.INTRA.DIHEDRAL>
7.87195

>  <SCORE.INTRA.DIHEDRAL.0>
15.8194

>  <SCORE.INTRA.POLAR>
0

>  <SCORE.INTRA.POLAR.0>
0

>  <SCORE.INTRA.REPUL>
0

>  <SCORE.INTRA.REPUL.0>
0

>  <SCORE.INTRA.SOLV>
1.40846

>  <SCORE.INTRA.SOLV.lig_0>
-71.9159

>  <SCORE.INTRA.VDW>
7.85022

>  <SCORE.INTRA.VDW.0>
-3.53918

>  <SCORE.INTRA.norm>
0.367365

>  <SCORE.RESTR>
8.18889

>  <SCORE.RESTR.CAVITY>
8.18889

>  <SCORE.RESTR.norm>
0.24085

>  <SCORE.SYSTEM>
0

>  <SCORE.SYSTEM.CONST>
0

>  <SCORE.SYSTEM.DIHEDRAL>
0

>  <SCORE.SYSTEM.SOLV>
0

>  <SCORE.SYSTEM.norm>
0

>  <SCORE.heavy>
34

>  <SCORE.norm>
0.692054

>  <RMSD>
9.311

$$$$
ligand
 OpenBabel01301917533D
libRbt.so/2013.1/901 2013/11/27
 34 36  0  0  0  0  0  0  0  0999 V2000
   19.7261   29.9390   33.8730 C   0  0  2  0  0  0  0  0  0  0  0  0
   18.8210   29.7489   34.9653 O   0  0  0  0  0  0  0  0  0  0  0  0
   15.8041   26.7918   35.7111 C   0  0  2  0  0  0  0  0  0  0  0  0
   14.5564   26.0192   35.6415 N   0  0  0  0  0  0  0  0  0  0  0  0
   17.4731   24.8689   32.8197 C   0  0  2  0  0  0  0  0  0  0  0  0
   21.0134   30.6587   34.4257 C   0  0  2  0  0  0  0  0  0  0  0  0
   21.6495   29.8574   35.4836 N   0  0  0  0  0  0  0  0  0  0  0  0
   15.4224   28.2962   35.9564 C   0  0  0  0  0  0  0  0  0  0  0  0
   16.8835   23.4254   32.5666 C   0  0  2  0  0  0  0  0  0  0  0  0
   15.4674   23.4713   32.5322 O   0  0  0  0  0  0  0  0  0  0  0  0
   20.6475   32.0720   34.9714 C   0  0  1  0  0  0  0  0  0  0  0  0
   21.8215   32.7335   35.4778 O   0  0  0  0  0  0  0  0  0  0  0  0
   16.7563   29.1175   36.0499 C   0  0  2  0  0  0  0  0  0  0  0  0
   16.4691   30.5625   36.2772 N   0  0  0  0  0  0  0  0  0  0  0  0
   17.3713   22.4845   33.7323 C   0  0  1  0  0  0  0  0  0  0  0  0
   16.8224   21.1227   33.5740 N   0  0  0  0  0  0  0  0  0  0  0  0
   19.9858   32.8792   33.8300 C   0  0  2  0  0  0  0  0  0  0  0  0
   19.6526   34.1866   34.3074 O   0  0  0  0  0  0  0  0  0  0  0  0
   17.5910   28.9709   34.7418 C   0  0  2  0  0  0  0  0  0  0  0  0
   18.9323   22.4449   33.7345 C   0  0  1  0  0  0  0  0  0  0  0  0
   19.3701   21.8999   32.4941 O   0  0  0  0  0  0  0  0  0  0  0  0
   18.6978   32.0946   33.3288 C   0  0  2  0  0  0  0  0  0  0  0  0
   19.0620   30.7426   32.8495 O   0  0  0  0  0  0  0  0  0  0  0  0
   17.8921   27.4675   34.4953 C   0  0  2  0  0  0  0  0  0  0  0  0
   18.6281   27.3588   33.2786 O   0  0  0  0  0  0  0  0  0  0  0  0
   19.4741   23.9013   33.8980 C   0  0  0  0  0  0  0  0  0  0  0  0
   18.9472   24.7949   32.8388 O   0  0  0  0  0  0  0  0  0  0  0  0
   17.9613   32.8286   32.1716 C   0  0  2  0  0  0  0  0  0  0  0  0
   18.9058   33.1641   31.1490 O   0  0  0  0  0  0  0  0  0  0  0  0
   16.5938   26.6373   34.3419 C   0  0  1  0  0  0  0  0  0  0  0  0
   16.9741   25.2480   34.1424 O   0  0  0  0  0  0  0  0  0  0  0  0
   17.3045   34.1104   32.6346 C   0  0  0  0  0  0  0  0  0  0  0  0
   19.4864   21.5641   34.8552 C   0  0  0  0  0  0  0  0  0  0  0  0
   15.6498   21.0085   34.4754 C   0  0  0  0  0  0  0  0  0  0  0  0
  1  2  1  1  0  0  0
  1  6  1  0  0  0  0
  1 23  1  0  0  0  0
  3  4  1  6  0  0  0
  3  8  1  0  0  0  0
  3 30  1  0  0  0  0
  5  9  1  0  0  0  0
  5 27  1  0  0  0  0
  5 31  1  1  0  0  0
  6  7  1  1  0  0  0
  6 11  1  0  0  0  0
  8 13  1  0  0  0  0
  9 10  1  1  0  0  0
  9 15  1  0  0  0  0
 11 12  1  6  0  0  0
 11 17  1  0  0  0  0
 13 14  1  6  0  0  0
 13 19  1  0  0  0  0
 15 16  1  6  0  0  0
 15 20  1  0  0  0  0
 16 34  1  0  0  0  0
 17 18  1  1  0  0  0
 17 22  1  0  0  0  0
 19  2  1  1  0  0  0
 19 24  1  0  0  0  0
 20 21  1  6  0  0  0
 20 26  1  0  0  0  0
 20 33  1  0  0  0  0
 22 23  1  6  0  0  0
 22 28  1  0  0  0  0
 24 25  1  6  0  0  0
 24 30  1  0  0  0  0
 26 27  1  0  0  0  0
 28 29  1  6  0  0  0
 28 32  1  0  0  0  0
 30 31  1  1  0  0  0
M  END
>  <CHROM.1>
-173.85380955,-172.61261073,-99.29926017,50.69311957,168.18655322,-142.41628993
18.18786080,27.72813521,34.02141516,-1.36570008,-0.18685015,-3.08613934

>  <Name>
ligand

>  <RI>
0

>  <Rbt.Current_Directory>
/home/itssahil/PROJECTS/Mol_Feturizer/New_Systems/rnas/4p3s

>  <Rbt.Executable>
rbdock ($Id: //depot/dev/client3/rdock/2013.1/src/exe/rbdock.cxx#4 $)

>  <Rbt.Library>
libRbt.so (2013.1, Build901 2013/11/27)

>  <Rbt.Parameter_File>
/export/apps/rDock/src/rDock_2013.1_src/data/scripts/dock_solv.prm

>  <Rbt.Receptor>
prm/pocket_docking_8.prm

>  <SCORE>
-12.6087

>  <SCORE.INTER>
-8.85988

>  <SCORE.INTER.CONST>
1

>  <SCORE.INTER.POLAR>
0

>  <SCORE.INTER.ROT>
6

>  <SCORE.INTER.SOLV>
17.3943

>  <SCORE.INTER.VDW>
-19.3047

>  <SCORE.INTER.norm>
-0.260585

>  <SCORE.INTRA>
-3.74884

>  <SCORE.INTRA.DIHEDRAL>
-8.46118

>  <SCORE.INTRA.DIHEDRAL.0>
15.8194

>  <SCORE.INTRA.POLAR>
0

>  <SCORE.INTRA.POLAR.0>
0

>  <SCORE.INTRA.REPUL>
0

>  <SCORE.INTRA.REPUL.0>
0

>  <SCORE.INTRA.SOLV>
-1.54926

>  <SCORE.INTRA.SOLV.lig_0>
-71.9159

>  <SCORE.INTRA.VDW>
1.25638

>  <SCORE.INTRA.VDW.0>
-3.53918

>  <SCORE.INTRA.norm>
-0.11026

>  <SCORE.RESTR>
0

>  <SCORE.RESTR.CAVITY>
0

>  <SCORE.RESTR.norm>
0

>  <SCORE.SYSTEM>
0

>  <SCORE.SYSTEM.CONST>
0

>  <SCORE.SYSTEM.DIHEDRAL>
0

>  <SCORE.SYSTEM.SOLV>
0

>  <SCORE.SYSTEM.norm>
0

>  <SCORE.heavy>
34

>  <SCORE.norm>
-0.370845

>  <RMSD>
9.347

$$$$
ligand
 OpenBabel01301917533D
libRbt.so/2013.1/901 2013/11/27
 34 36  0  0  0  0  0  0  0  0999 V2000
   21.0037   35.0536   28.9214 C   0  0  2  0  0  0  0  0  0  0  0  0
   22.2387   34.3774   29.1775 O   0  0  0  0  0  0  0  0  0  0  0  0
   20.6507   31.4691   31.9019 C   0  0  2  0  0  0  0  0  0  0  0  0
   20.5224   30.2923   32.7721 N   0  0  0  0  0  0  0  0  0  0  0  0
   21.3991   32.0148   34.9362 C   0  0  2  0  0  0  0  0  0  0  0  0
   21.1500   35.8396   27.5643 C   0  0  2  0  0  0  0  0  0  0  0  0
   21.4700   34.9226   26.4585 N   0  0  0  0  0  0  0  0  0  0  0  0
   21.0918   30.9669   30.4798 C   0  0  0  0  0  0  0  0  0  0  0  0
   21.0573   32.8955   36.2022 C   0  0  2  0  0  0  0  0  0  0  0  0
   19.7327   33.3916   36.1137 O   0  0  0  0  0  0  0  0  0  0  0  0
   22.2548   36.9315   27.6912 C   0  0  1  0  0  0  0  0  0  0  0  0
   22.3921   37.6524   26.4527 O   0  0  0  0  0  0  0  0  0  0  0  0
   21.2097   32.2224   29.5460 C   0  0  2  0  0  0  0  0  0  0  0  0
   21.6326   31.8197   28.1744 N   0  0  0  0  0  0  0  0  0  0  0  0
   22.0845   34.0887   36.2620 C   0  0  1  0  0  0  0  0  0  0  0  0
   21.7959   34.9745   37.4078 N   0  0  0  0  0  0  0  0  0  0  0  0
   21.8789   37.8723   28.8598 C   0  0  2  0  0  0  0  0  0  0  0  0
   22.8759   38.8912   28.9859 O   0  0  0  0  0  0  0  0  0  0  0  0
   22.2455   33.2400   30.1127 C   0  0  2  0  0  0  0  0  0  0  0  0
   23.5305   33.5099   36.3727 C   0  0  1  0  0  0  0  0  0  0  0  0
   23.6253   32.7645   37.5821 O   0  0  0  0  0  0  0  0  0  0  0  0
   21.7528   37.0108   30.1895 C   0  0  2  0  0  0  0  0  0  0  0  0
   20.7252   35.9572   30.0352 O   0  0  0  0  0  0  0  0  0  0  0  0
   21.8143   33.6627   31.5434 C   0  0  2  0  0  0  0  0  0  0  0  0
   22.7933   34.5676   32.0499 O   0  0  0  0  0  0  0  0  0  0  0  0
   23.7956   32.5758   35.1485 C   0  0  0  0  0  0  0  0  0  0  0  0
   22.7776   31.5016   35.0593 O   0  0  0  0  0  0  0  0  0  0  0  0
   21.3710   37.8720   31.4277 C   0  0  2  0  0  0  0  0  0  0  0  0
   21.3049   37.0312   32.5848 O   0  0  0  0  0  0  0  0  0  0  0  0
   21.7431   32.4513   32.5054 C   0  0  1  0  0  0  0  0  0  0  0  0
   21.3085   32.9387   33.8047 O   0  0  0  0  0  0  0  0  0  0  0  0
   20.0247   38.5423   31.2642 C   0  0  0  0  0  0  0  0  0  0  0  0
   24.5917   34.6103   36.4157 C   0  0  0  0  0  0  0  0  0  0  0  0
   21.7982   36.3694   36.9028 C   0  0  0  0  0  0  0  0  0  0  0  0
  1  2  1  1  0  0  0
  1  6  1  0  0  0  0
  1 23  1  0  0  0  0
  3  4  1  1  0  0  0
  3  8  1  0  0  0  0
  3 30  1  0  0  0  0
  5  9  1  0  0  0  0
  5 27  1  0  0  0  0
  5 31  1  6  0  0  0
  6  7  1  6  0  0  0
  6 11  1  0  0  0  0
  8 13  1  0  0  0  0
  9 10  1  6  0  0  0
  9 15  1  0  0  0  0
 11 12  1  6  0  0  0
 11 17  1  0  0  0  0
 13 14  1  6  0  0  0
 13 19  1  0  0  0  0
 15 16  1  1  0  0  0
 15 20  1  0  0  0  0
 16 34  1  0  0  0  0
 17 18  1  1  0  0  0
 17 22  1  0  0  0  0
 19  2  1  6  0  0  0
 19 24  1  0  0  0  0
 20 21  1  1  0  0  0
 20 26  1  0  0  0  0
 20 33  1  0  0  0  0
 22 23  1  6  0  0  0
 22 28  1  0  0  0  0
 24 25  1  1  0  0  0
 24 30  1  0  0  0  0
 26 27  1  0  0  0  0
 28 29  1  1  0  0  0
 28 32  1  0  0  0  0
 30 31  1  1  0  0  0
M  END
>  <CHROM.1>
-160.04021432,56.90064214,-131.73458713,-178.80423158,75.33286272,172.22368858
21.82254021,34.45545909,32.11318461,2.15090469,-1.44846934,-0.61368457

>  <Name>
ligand

>  <RI>
0

>  <Rbt.Current_Directory>
/home/itssahil/PROJECTS/Mol_Feturizer/New_Systems/rnas/4p3s

>  <Rbt.Executable>
rbdock ($Id: //depot/dev/client3/rdock/2013.1/src/exe/rbdock.cxx#4 $)

>  <Rbt.Library>
libRbt.so (2013.1, Build901 2013/11/27)

>  <Rbt.Parameter_File>
/export/apps/rDock/src/rDock_2013.1_src/data/scripts/dock_solv.prm

>  <Rbt.Receptor>
prm/blind_docking_100.prm

>  <SCORE>
-1.22024

>  <SCORE.INTER>
-2.29181

>  <SCORE.INTER.CONST>
1

>  <SCORE.INTER.POLAR>
0

>  <SCORE.INTER.ROT>
6

>  <SCORE.INTER.SOLV>
10.9281

>  <SCORE.INTER.VDW>
-12.7706

>  <SCORE.INTER.norm>
-0.0674062

>  <SCORE.INTRA>
-3.63669

>  <SCORE.INTRA.DIHEDRAL>
-11.3943

>  <SCORE.INTRA.DIHEDRAL.0>
15.8194

>  <SCORE.INTRA.POLAR>
0

>  <SCORE.INTRA.POLAR.0>
0

>  <SCORE.INTRA.REPUL>
0.112389

>  <SCORE.INTRA.REPUL.0>
0

>  <SCORE.INTRA.SOLV>
1.64415

>  <SCORE.INTRA.SOLV.lig_0>
-71.9159

>  <SCORE.INTRA.VDW>
0.676439

>  <SCORE.INTRA.VDW.0>
-3.53918

>  <SCORE.INTRA.norm>
-0.106962

>  <SCORE.RESTR>
4.70826

>  <SCORE.RESTR.CAVITY>
4.70826

>  <SCORE.RESTR.norm>
0.138478

>  <SCORE.SYSTEM>
0

>  <SCORE.SYSTEM.CONST>
0

>  <SCORE.SYSTEM.DIHEDRAL>
0

>  <SCORE.SYSTEM.SOLV>
0

>  <SCORE.SYSTEM.norm>
0

>  <SCORE.heavy>
34

>  <SCORE.norm>
-0.0358895

>  <RMSD>
9.349

$$$$
ligand
 OpenBabel01301917533D
libRbt.so/2013.1/901 2013/11/27
 34 36  0  0  0  0  0  0  0  0999 V2000
   19.4159   28.8675   35.0654 C   0  0  2  0  0  0  0  0  0  0  0  0
   18.3446   28.2661   35.7995 O   0  0  0  0  0  0  0  0  0  0  0  0
   15.6553   25.0824   34.7827 C   0  0  2  0  0  0  0  0  0  0  0  0
   14.5492   24.3251   34.1812 N   0  0  0  0  0  0  0  0  0  0  0  0
   17.7180   24.4225   31.6532 C   0  0  2  0  0  0  0  0  0  0  0  0
   20.4777   29.3998   36.0998 C   0  0  2  0  0  0  0  0  0  0  0  0
   20.9859   28.3043   36.9410 N   0  0  0  0  0  0  0  0  0  0  0  0
   15.0448   26.3568   35.4700 C   0  0  0  0  0  0  0  0  0  0  0  0
   17.6911   22.9393   31.1103 C   0  0  2  0  0  0  0  0  0  0  0  0
   16.3683   22.4311   31.1319 O   0  0  0  0  0  0  0  0  0  0  0  0
   19.8494   30.5127   36.9918 C   0  0  1  0  0  0  0  0  0  0  0  0
   20.8167   31.0019   37.9390 O   0  0  0  0  0  0  0  0  0  0  0  0
   16.2245   27.1548   36.1286 C   0  0  2  0  0  0  0  0  0  0  0  0
   15.7171   28.3865   36.7977 N   0  0  0  0  0  0  0  0  0  0  0  0
   18.6273   22.0641   32.0268 C   0  0  1  0  0  0  0  0  0  0  0  0
   18.6181   20.6525   31.5929 N   0  0  0  0  0  0  0  0  0  0  0  0
   19.3319   31.6420   36.0704 C   0  0  2  0  0  0  0  0  0  0  0  0
   18.7611   32.6813   36.8716 O   0  0  0  0  0  0  0  0  0  0  0  0
   17.2829   27.5633   35.0598 C   0  0  2  0  0  0  0  0  0  0  0  0
   20.0774   22.6408   31.9706 C   0  0  1  0  0  0  0  0  0  0  0  0
   20.5435   22.5558   30.6279 O   0  0  0  0  0  0  0  0  0  0  0  0
   18.2670   31.0309   35.0612 C   0  0  2  0  0  0  0  0  0  0  0  0
   18.8735   29.9519   34.2501 O   0  0  0  0  0  0  0  0  0  0  0  0
   17.8148   26.2858   34.3552 C   0  0  2  0  0  0  0  0  0  0  0  0
   18.7562   26.6890   33.3627 O   0  0  0  0  0  0  0  0  0  0  0  0
   20.0451   24.1338   32.4303 C   0  0  0  0  0  0  0  0  0  0  0  0
   19.1030   24.9310   31.6087 O   0  0  0  0  0  0  0  0  0  0  0  0
   17.6882   32.0943   34.0841 C   0  0  2  0  0  0  0  0  0  0  0  0
   17.0770   33.1459   34.8395 O   0  0  0  0  0  0  0  0  0  0  0  0
   16.6813   25.5043   33.6462 C   0  0  1  0  0  0  0  0  0  0  0  0
   17.2676   24.3187   33.0418 O   0  0  0  0  0  0  0  0  0  0  0  0
   16.6372   31.5130   33.1643 C   0  0  0  0  0  0  0  0  0  0  0  0
   21.0467   21.8543   32.8541 C   0  0  0  0  0  0  0  0  0  0  0  0
   17.8733   19.8781   32.6158 C   0  0  0  0  0  0  0  0  0  0  0  0
  1  2  1  1  0  0  0
  1  6  1  0  0  0  0
  1 23  1  0  0  0  0
  3  4  1  6  0  0  0
  3  8  1  0  0  0  0
  3 30  1  0  0  0  0
  5  9  1  0  0  0  0
  5 27  1  0  0  0  0
  5 31  1  1  0  0  0
  6  7  1  1  0  0  0
  6 11  1  0  0  0  0
  8 13  1  0  0  0  0
  9 10  1  1  0  0  0
  9 15  1  0  0  0  0
 11 12  1  1  0  0  0
 11 17  1  0  0  0  0
 13 14  1  6  0  0  0
 13 19  1  0  0  0  0
 15 16  1  6  0  0  0
 15 20  1  0  0  0  0
 16 34  1  0  0  0  0
 17 18  1  1  0  0  0
 17 22  1  0  0  0  0
 19  2  1  1  0  0  0
 19 24  1  0  0  0  0
 20 21  1  6  0  0  0
 20 26  1  0  0  0  0
 20 33  1  0  0  0  0
 22 23  1  6  0  0  0
 22 28  1  0  0  0  0
 24 25  1  6  0  0  0
 24 30  1  0  0  0  0
 26 27  1  0  0  0  0
 28 29  1  1  0  0  0
 28 32  1  0  0  0  0
 30 31  1  1  0  0  0
M  END
>  <CHROM.1>
-173.72893797,-174.76630703,-108.71144087,-58.26175001,152.40926637,-156.02501372
18.22710185,26.73969850,34.09156434,-1.55349525,-0.00560468,-2.72237695

>  <Name>
ligand

>  <RI>
0

>  <Rbt.Current_Directory>
/home/itssahil/PROJECTS/Mol_Feturizer/New_Systems/rnas/4p3s

>  <Rbt.Executable>
rbdock ($Id: //depot/dev/client3/rdock/2013.1/src/exe/rbdock.cxx#4 $)

>  <Rbt.Library>
libRbt.so (2013.1, Build901 2013/11/27)

>  <Rbt.Parameter_File>
/export/apps/rDock/src/rDock_2013.1_src/data/scripts/dock_solv.prm

>  <Rbt.Receptor>
prm/pocket_docking_6.prm

>  <SCORE>
-16.7297

>  <SCORE.INTER>
-12.1802

>  <SCORE.INTER.CONST>
1

>  <SCORE.INTER.POLAR>
0

>  <SCORE.INTER.ROT>
6

>  <SCORE.INTER.SOLV>
14.8716

>  <SCORE.INTER.VDW>
-20.6773

>  <SCORE.INTER.norm>
-0.358242

>  <SCORE.INTRA>
-4.54944

>  <SCORE.INTRA.DIHEDRAL>
-8.70995

>  <SCORE.INTRA.DIHEDRAL.0>
15.8194

>  <SCORE.INTRA.POLAR>
0

>  <SCORE.INTRA.POLAR.0>
0

>  <SCORE.INTRA.REPUL>
0

>  <SCORE.INTRA.REPUL.0>
0

>  <SCORE.INTRA.SOLV>
-1.5743

>  <SCORE.INTRA.SOLV.lig_0>
-71.9159

>  <SCORE.INTRA.VDW>
0.592677

>  <SCORE.INTRA.VDW.0>
-3.53918

>  <SCORE.INTRA.norm>
-0.133807

>  <SCORE.RESTR>
0

>  <SCORE.RESTR.CAVITY>
0

>  <SCORE.RESTR.norm>
0

>  <SCORE.SYSTEM>
0

>  <SCORE.SYSTEM.CONST>
0

>  <SCORE.SYSTEM.DIHEDRAL>
0

>  <SCORE.SYSTEM.SOLV>
0

>  <SCORE.SYSTEM.norm>
0

>  <SCORE.heavy>
34

>  <SCORE.norm>
-0.492049

>  <RMSD>
9.351

$$$$
ligand
 OpenBabel01301917533D
libRbt.so/2013.1/901 2013/11/27
 34 36  0  0  0  0  0  0  0  0999 V2000
   19.3546   28.8219   35.1484 C   0  0  2  0  0  0  0  0  0  0  0  0
   18.2936   28.1745   35.8579 O   0  0  0  0  0  0  0  0  0  0  0  0
   15.6266   25.0052   34.7421 C   0  0  2  0  0  0  0  0  0  0  0  0
   14.5303   24.2575   34.1115 N   0  0  0  0  0  0  0  0  0  0  0  0
   17.7402   24.4197   31.6291 C   0  0  2  0  0  0  0  0  0  0  0  0
   20.3943   29.3543   36.2048 C   0  0  2  0  0  0  0  0  0  0  0  0
   20.9241   28.2509   37.0221 N   0  0  0  0  0  0  0  0  0  0  0  0
   15.0038   26.2633   35.4482 C   0  0  0  0  0  0  0  0  0  0  0  0
   17.7339   22.9487   31.0533 C   0  0  2  0  0  0  0  0  0  0  0  0
   16.4143   22.4323   31.0367 O   0  0  0  0  0  0  0  0  0  0  0  0
   19.7306   30.4274   37.1197 C   0  0  1  0  0  0  0  0  0  0  0  0
   20.6777   30.9168   38.0872 O   0  0  0  0  0  0  0  0  0  0  0  0
   16.1730   27.0506   36.1377 C   0  0  2  0  0  0  0  0  0  0  0  0
   15.6536   28.2667   36.8260 N   0  0  0  0  0  0  0  0  0  0  0  0
   18.6570   22.0591   31.9691 C   0  0  1  0  0  0  0  0  0  0  0  0
   18.6657   20.6575   31.5041 N   0  0  0  0  0  0  0  0  0  0  0  0
   19.1913   31.5665   36.2232 C   0  0  2  0  0  0  0  0  0  0  0  0
   18.5876   32.5699   37.0458 O   0  0  0  0  0  0  0  0  0  0  0  0
   17.2431   27.4843   35.0908 C   0  0  2  0  0  0  0  0  0  0  0  0
   20.1041   22.6456   31.9552 C   0  0  1  0  0  0  0  0  0  0  0  0
   20.5979   22.5932   30.6207 O   0  0  0  0  0  0  0  0  0  0  0  0
   18.1503   30.9545   35.1897 C   0  0  2  0  0  0  0  0  0  0  0  0
   18.7907   29.9126   34.3565 O   0  0  0  0  0  0  0  0  0  0  0  0
   17.7875   26.2233   34.3663 C   0  0  2  0  0  0  0  0  0  0  0  0
   18.7398   26.6497   33.3941 O   0  0  0  0  0  0  0  0  0  0  0  0
   20.0529   24.1279   32.4470 C   0  0  0  0  0  0  0  0  0  0  0  0
   19.1225   24.9373   31.6241 O   0  0  0  0  0  0  0  0  0  0  0  0
   17.5518   32.0275   34.2353 C   0  0  2  0  0  0  0  0  0  0  0  0
   16.8617   33.0150   35.0092 O   0  0  0  0  0  0  0  0  0  0  0  0
   16.6651   25.4535   33.6273 C   0  0  1  0  0  0  0  0  0  0  0  0
   17.2624   24.2824   33.0057 O   0  0  0  0  0  0  0  0  0  0  0  0
   16.5643   31.4334   33.2553 C   0  0  0  0  0  0  0  0  0  0  0  0
   21.0605   21.8456   32.8408 C   0  0  0  0  0  0  0  0  0  0  0  0
   17.8953   19.8580   32.4881 C   0  0  0  0  0  0  0  0  0  0  0  0
  1  2  1  1  0  0  0
  1  6  1  0  0  0  0
  1 23  1  0  0  0  0
  3  4  1  6  0  0  0
  3  8  1  0  0  0  0
  3 30  1  0  0  0  0
  5  9  1  0  0  0  0
  5 27  1  0  0  0  0
  5 31  1  1  0  0  0
  6  7  1  1  0  0  0
  6 11  1  0  0  0  0
  8 13  1  0  0  0  0
  9 10  1  1  0  0  0
  9 15  1  0  0  0  0
 11 12  1  1  0  0  0
 11 17  1  0  0  0  0
 13 14  1  6  0  0  0
 13 19  1  0  0  0  0
 15 16  1  6  0  0  0
 15 20  1  0  0  0  0
 16 34  1  0  0  0  0
 17 18  1  1  0  0  0
 17 22  1  0  0  0  0
 19  2  1  1  0  0  0
 19 24  1  0  0  0  0
 20 21  1  6  0  0  0
 20 26  1  0  0  0  0
 20 33  1  0  0  0  0
 22 23  1  6  0  0  0
 22 28  1  0  0  0  0
 24 25  1  6  0  0  0
 24 30  1  0  0  0  0
 26 27  1  0  0  0  0
 28 29  1  1  0  0  0
 28 32  1  0  0  0  0
 30 31  1  1  0  0  0
M  END
>  <CHROM.1>
-174.79825093,-173.26910736,-108.22478183,-60.55936620,152.93372747,-156.46068268
18.18466001,26.68989760,34.12295459,-1.56983630,0.01325785,-2.70083945

>  <Name>
ligand

>  <RI>
0

>  <Rbt.Current_Directory>
/home/itssahil/PROJECTS/Mol_Feturizer/New_Systems/rnas/4p3s

>  <Rbt.Executable>
rbdock ($Id: //depot/dev/client3/rdock/2013.1/src/exe/rbdock.cxx#4 $)

>  <Rbt.Library>
libRbt.so (2013.1, Build901 2013/11/27)

>  <Rbt.Parameter_File>
/export/apps/rDock/src/rDock_2013.1_src/data/scripts/dock_solv.prm

>  <Rbt.Receptor>
prm/pocket_docking_6.prm

>  <SCORE>
-16.7192

>  <SCORE.INTER>
-12.1238

>  <SCORE.INTER.CONST>
1

>  <SCORE.INTER.POLAR>
0

>  <SCORE.INTER.ROT>
6

>  <SCORE.INTER.SOLV>
14.8325

>  <SCORE.INTER.VDW>
-20.6267

>  <SCORE.INTER.norm>
-0.356581

>  <SCORE.INTRA>
-4.59546

>  <SCORE.INTRA.DIHEDRAL>
-8.87852

>  <SCORE.INTRA.DIHEDRAL.0>
15.8194

>  <SCORE.INTRA.POLAR>
0

>  <SCORE.INTRA.POLAR.0>
0

>  <SCORE.INTRA.REPUL>
0

>  <SCORE.INTRA.REPUL.0>
0

>  <SCORE.INTRA.SOLV>
-1.57676

>  <SCORE.INTRA.SOLV.lig_0>
-71.9159

>  <SCORE.INTRA.VDW>
0.632184

>  <SCORE.INTRA.VDW.0>
-3.53918

>  <SCORE.INTRA.norm>
-0.135161

>  <SCORE.RESTR>
0

>  <SCORE.RESTR.CAVITY>
0

>  <SCORE.RESTR.norm>
0

>  <SCORE.SYSTEM>
0

>  <SCORE.SYSTEM.CONST>
0

>  <SCORE.SYSTEM.DIHEDRAL>
0

>  <SCORE.SYSTEM.SOLV>
0

>  <SCORE.SYSTEM.norm>
0

>  <SCORE.heavy>
34

>  <SCORE.norm>
-0.491742

>  <RMSD>
9.351

$$$$
ligand
 OpenBabel01301917533D
libRbt.so/2013.1/901 2013/11/27
 34 36  0  0  0  0  0  0  0  0999 V2000
   17.9191   29.9288   35.8705 C   0  0  2  0  0  0  0  0  0  0  0  0
   18.2285   28.5851   35.4873 O   0  0  0  0  0  0  0  0  0  0  0  0
   15.7151   25.1743   34.8154 C   0  0  2  0  0  0  0  0  0  0  0  0
   14.6344   24.3095   34.3227 N   0  0  0  0  0  0  0  0  0  0  0  0
   17.7410   24.4818   31.6499 C   0  0  2  0  0  0  0  0  0  0  0  0
   17.8721   30.8098   34.5658 C   0  0  2  0  0  0  0  0  0  0  0  0
   16.8615   30.3006   33.6248 N   0  0  0  0  0  0  0  0  0  0  0  0
   15.0544   26.4480   35.4560 C   0  0  0  0  0  0  0  0  0  0  0  0
   17.7035   22.9894   31.1333 C   0  0  2  0  0  0  0  0  0  0  0  0
   16.3764   22.4927   31.1598 O   0  0  0  0  0  0  0  0  0  0  0  0
   19.2732   30.8368   33.8838 C   0  0  1  0  0  0  0  0  0  0  0  0
   19.2347   31.6410   32.6904 O   0  0  0  0  0  0  0  0  0  0  0  0
   16.2086   27.3618   35.9991 C   0  0  2  0  0  0  0  0  0  0  0  0
   15.6526   28.5986   36.6186 N   0  0  0  0  0  0  0  0  0  0  0  0
   18.6297   22.1229   32.0679 C   0  0  1  0  0  0  0  0  0  0  0  0
   18.6100   20.7040   31.6589 N   0  0  0  0  0  0  0  0  0  0  0  0
   20.3017   31.3790   34.9037 C   0  0  2  0  0  0  0  0  0  0  0  0
   21.5950   31.4235   34.2927 O   0  0  0  0  0  0  0  0  0  0  0  0
   17.1813   27.7684   34.8511 C   0  0  2  0  0  0  0  0  0  0  0  0
   20.0846   22.6865   32.0059 C   0  0  1  0  0  0  0  0  0  0  0  0
   20.5539   22.5740   30.6663 O   0  0  0  0  0  0  0  0  0  0  0  0
   20.2937   30.4403   36.1862 C   0  0  2  0  0  0  0  0  0  0  0  0
   18.9463   30.3995   36.7968 O   0  0  0  0  0  0  0  0  0  0  0  0
   17.7630   26.4854   34.1977 C   0  0  2  0  0  0  0  0  0  0  0  0
   18.6233   26.8840   33.1325 O   0  0  0  0  0  0  0  0  0  0  0  0
   20.0635   24.1876   32.4391 C   0  0  0  0  0  0  0  0  0  0  0  0
   19.1304   24.9779   31.6007 O   0  0  0  0  0  0  0  0  0  0  0  0
   21.2983   30.9085   37.2781 C   0  0  2  0  0  0  0  0  0  0  0  0
   21.1252   32.3111   37.5080 O   0  0  0  0  0  0  0  0  0  0  0  0
   16.6511   25.5877   33.6008 C   0  0  1  0  0  0  0  0  0  0  0  0
   17.2858   24.4062   33.0388 O   0  0  0  0  0  0  0  0  0  0  0  0
   22.7362   30.6801   36.8672 C   0  0  0  0  0  0  0  0  0  0  0  0
   21.0449   21.9078   32.9061 C   0  0  0  0  0  0  0  0  0  0  0  0
   18.0131   19.9284   32.7738 C   0  0  0  0  0  0  0  0  0  0  0  0
  1  2  1  6  0  0  0
  1  6  1  0  0  0  0
  1 23  1  0  0  0  0
  3  4  1  6  0  0  0
  3  8  1  0  0  0  0
  3 30  1  0  0  0  0
  5  9  1  0  0  0  0
  5 27  1  0  0  0  0
  5 31  1  1  0  0  0
  6  7  1  6  0  0  0
  6 11  1  0  0  0  0
  8 13  1  0  0  0  0
  9 10  1  1  0  0  0
  9 15  1  0  0  0  0
 11 12  1  6  0  0  0
 11 17  1  0  0  0  0
 13 14  1  6  0  0  0
 13 19  1  0  0  0  0
 15 16  1  6  0  0  0
 15 20  1  0  0  0  0
 16 34  1  0  0  0  0
 17 18  1  6  0  0  0
 17 22  1  0  0  0  0
 19  2  1  1  0  0  0
 19 24  1  0  0  0  0
 20 21  1  6  0  0  0
 20 26  1  0  0  0  0
 20 33  1  0  0  0  0
 22 23  1  1  0  0  0
 22 28  1  0  0  0  0
 24 25  1  6  0  0  0
 24 30  1  0  0  0  0
 26 27  1  0  0  0  0
 28 29  1  6  0  0  0
 28 32  1  0  0  0  0
 30 31  1  1  0  0  0
M  END
>  <CHROM.1>
-74.79096192,-75.04090686,-115.94699287,48.67364149,156.53343226,-153.23566141
18.52379077,26.82428599,33.98565293,1.40339322,0.22957903,0.44504621

>  <Name>
ligand

>  <RI>
0

>  <Rbt.Current_Directory>
/home/itssahil/PROJECTS/Mol_Feturizer/New_Systems/rnas/4p3s

>  <Rbt.Executable>
rbdock ($Id: //depot/dev/client3/rdock/2013.1/src/exe/rbdock.cxx#4 $)

>  <Rbt.Library>
libRbt.so (2013.1, Build901 2013/11/27)

>  <Rbt.Parameter_File>
/export/apps/rDock/src/rDock_2013.1_src/data/scripts/dock_solv.prm

>  <Rbt.Receptor>
prm/pocket_docking_5.prm

>  <SCORE>
-11.7845

>  <SCORE.INTER>
-11.3787

>  <SCORE.INTER.CONST>
1

>  <SCORE.INTER.POLAR>
0

>  <SCORE.INTER.ROT>
6

>  <SCORE.INTER.SOLV>
17.5049

>  <SCORE.INTER.VDW>
-21.0208

>  <SCORE.INTER.norm>
-0.334669

>  <SCORE.INTRA>
-0.405761

>  <SCORE.INTRA.DIHEDRAL>
-6.67192

>  <SCORE.INTRA.DIHEDRAL.0>
15.8194

>  <SCORE.INTRA.POLAR>
0

>  <SCORE.INTRA.POLAR.0>
0

>  <SCORE.INTRA.REPUL>
0

>  <SCORE.INTRA.REPUL.0>
0

>  <SCORE.INTRA.SOLV>
2.54132

>  <SCORE.INTRA.SOLV.lig_0>
-71.9159

>  <SCORE.INTRA.VDW>
1.65954

>  <SCORE.INTRA.VDW.0>
-3.53918

>  <SCORE.INTRA.norm>
-0.0119341

>  <SCORE.RESTR>
0

>  <SCORE.RESTR.CAVITY>
0

>  <SCORE.RESTR.norm>
0

>  <SCORE.SYSTEM>
0

>  <SCORE.SYSTEM.CONST>
0

>  <SCORE.SYSTEM.DIHEDRAL>
0

>  <SCORE.SYSTEM.SOLV>
0

>  <SCORE.SYSTEM.norm>
0

>  <SCORE.heavy>
34

>  <SCORE.norm>
-0.346603

>  <RMSD>
9.352

$$$$
ligand
 OpenBabel01301917533D
libRbt.so/2013.1/901 2013/11/27
 34 36  0  0  0  0  0  0  0  0999 V2000
   19.1795   29.0443   34.6859 C   0  0  2  0  0  0  0  0  0  0  0  0
   18.1689   28.4206   35.4846 O   0  0  0  0  0  0  0  0  0  0  0  0
   15.6582   25.0274   34.7195 C   0  0  2  0  0  0  0  0  0  0  0  0
   14.5848   24.1727   34.1945 N   0  0  0  0  0  0  0  0  0  0  0  0
   17.7572   24.3726   31.5911 C   0  0  2  0  0  0  0  0  0  0  0  0
   20.1900   29.7666   35.6543 C   0  0  2  0  0  0  0  0  0  0  0  0
   20.7976   28.8067   36.5899 N   0  0  0  0  0  0  0  0  0  0  0  0
   14.9891   26.2953   35.3630 C   0  0  0  0  0  0  0  0  0  0  0  0
   17.7251   22.8896   31.0479 C   0  0  2  0  0  0  0  0  0  0  0  0
   16.3948   22.4016   31.0275 O   0  0  0  0  0  0  0  0  0  0  0  0
   19.4642   30.8976   36.4436 C   0  0  1  0  0  0  0  0  0  0  0  0
   20.3844   31.5605   37.3303 O   0  0  0  0  0  0  0  0  0  0  0  0
   16.1352   27.1981   35.9406 C   0  0  2  0  0  0  0  0  0  0  0  0
   15.5711   28.4288   36.5646 N   0  0  0  0  0  0  0  0  0  0  0  0
   18.6184   22.0009   31.9937 C   0  0  1  0  0  0  0  0  0  0  0  0
   18.6016   20.5894   31.5598 N   0  0  0  0  0  0  0  0  0  0  0  0
   18.8441   31.8826   35.4251 C   0  0  2  0  0  0  0  0  0  0  0  0
   18.1821   32.9372   36.1304 O   0  0  0  0  0  0  0  0  0  0  0  0
   17.1319   27.6158   34.8174 C   0  0  2  0  0  0  0  0  0  0  0  0
   20.0781   22.5556   31.9834 C   0  0  1  0  0  0  0  0  0  0  0  0
   20.5852   22.4628   30.6562 O   0  0  0  0  0  0  0  0  0  0  0  0
   17.8377   31.0843   34.4892 C   0  0  2  0  0  0  0  0  0  0  0  0
   18.5389   29.9926   33.7775 O   0  0  0  0  0  0  0  0  0  0  0  0
   17.7223   26.3391   34.1593 C   0  0  2  0  0  0  0  0  0  0  0  0
   18.6049   26.7482   33.1166 O   0  0  0  0  0  0  0  0  0  0  0  0
   20.0539   24.0492   32.4417 C   0  0  0  0  0  0  0  0  0  0  0  0
   19.1505   24.8600   31.5906 O   0  0  0  0  0  0  0  0  0  0  0  0
   17.1626   31.9930   33.4221 C   0  0  2  0  0  0  0  0  0  0  0  0
   16.1806   31.2334   32.7087 O   0  0  0  0  0  0  0  0  0  0  0  0
   16.6196   25.4530   33.5291 C   0  0  1  0  0  0  0  0  0  0  0  0
   17.2615   24.2765   32.9648 O   0  0  0  0  0  0  0  0  0  0  0  0
   18.1569   32.5272   32.4149 C   0  0  0  0  0  0  0  0  0  0  0  0
   21.0069   21.7550   32.8973 C   0  0  0  0  0  0  0  0  0  0  0  0
   17.9243   19.8061   32.6221 C   0  0  0  0  0  0  0  0  0  0  0  0
  1  2  1  1  0  0  0
  1  6  1  0  0  0  0
  1 23  1  0  0  0  0
  3  4  1  6  0  0  0
  3  8  1  0  0  0  0
  3 30  1  0  0  0  0
  5  9  1  0  0  0  0
  5 27  1  0  0  0  0
  5 31  1  1  0  0  0
  6  7  1  1  0  0  0
  6 11  1  0  0  0  0
  8 13  1  0  0  0  0
  9 10  1  1  0  0  0
  9 15  1  0  0  0  0
 11 12  1  1  0  0  0
 11 17  1  0  0  0  0
 13 14  1  6  0  0  0
 13 19  1  0  0  0  0
 15 16  1  6  0  0  0
 15 20  1  0  0  0  0
 16 34  1  0  0  0  0
 17 18  1  1  0  0  0
 17 22  1  0  0  0  0
 19  2  1  1  0  0  0
 19 24  1  0  0  0  0
 20 21  1  6  0  0  0
 20 26  1  0  0  0  0
 20 33  1  0  0  0  0
 22 23  1  6  0  0  0
 22 28  1  0  0  0  0
 24 25  1  6  0  0  0
 24 30  1  0  0  0  0
 26 27  1  0  0  0  0
 28 29  1  6  0  0  0
 28 32  1  0  0  0  0
 30 31  1  1  0  0  0
M  END
>  <CHROM.1>
-176.96903443,-175.01323765,-113.96523168,-174.43627196,157.16782170,-153.30031211
18.11068173,26.76034202,33.78122785,-1.57685581,-0.14587926,-2.79423740

>  <Name>
ligand

>  <RI>
0

>  <Rbt.Current_Directory>
/home/itssahil/PROJECTS/Mol_Feturizer/New_Systems/rnas/4p3s

>  <Rbt.Executable>
rbdock ($Id: //depot/dev/client3/rdock/2013.1/src/exe/rbdock.cxx#4 $)

>  <Rbt.Library>
libRbt.so (2013.1, Build901 2013/11/27)

>  <Rbt.Parameter_File>
/export/apps/rDock/src/rDock_2013.1_src/data/scripts/dock_solv.prm

>  <Rbt.Receptor>
prm/pocket_docking_8.prm

>  <SCORE>
-17.1053

>  <SCORE.INTER>
-12.7201

>  <SCORE.INTER.CONST>
1

>  <SCORE.INTER.POLAR>
0

>  <SCORE.INTER.ROT>
6

>  <SCORE.INTER.SOLV>
16.7082

>  <SCORE.INTER.VDW>
-21.6494

>  <SCORE.INTER.norm>
-0.37412

>  <SCORE.INTRA>
-4.38521

>  <SCORE.INTRA.DIHEDRAL>
-9.04429

>  <SCORE.INTRA.DIHEDRAL.0>
15.8194

>  <SCORE.INTRA.POLAR>
0

>  <SCORE.INTRA.POLAR.0>
0

>  <SCORE.INTRA.REPUL>
0

>  <SCORE.INTRA.REPUL.0>
0

>  <SCORE.INTRA.SOLV>
-1.88053

>  <SCORE.INTRA.SOLV.lig_0>
-71.9159

>  <SCORE.INTRA.VDW>
1.0772

>  <SCORE.INTRA.VDW.0>
-3.53918

>  <SCORE.INTRA.norm>
-0.128977

>  <SCORE.RESTR>
0

>  <SCORE.RESTR.CAVITY>
0

>  <SCORE.RESTR.norm>
0

>  <SCORE.SYSTEM>
0

>  <SCORE.SYSTEM.CONST>
0

>  <SCORE.SYSTEM.DIHEDRAL>
0

>  <SCORE.SYSTEM.SOLV>
0

>  <SCORE.SYSTEM.norm>
0

>  <SCORE.heavy>
34

>  <SCORE.norm>
-0.503097

>  <RMSD>
9.353

$$$$
ligand
 OpenBabel01301917533D
libRbt.so/2013.1/901 2013/11/27
 34 36  0  0  0  0  0  0  0  0999 V2000
   19.0582   29.1884   34.6918 C   0  0  2  0  0  0  0  0  0  0  0  0
   18.1055   28.4855   35.4959 O   0  0  0  0  0  0  0  0  0  0  0  0
   15.6608   25.0442   34.7323 C   0  0  2  0  0  0  0  0  0  0  0  0
   14.6037   24.1688   34.2079 N   0  0  0  0  0  0  0  0  0  0  0  0
   17.7647   24.4288   31.6002 C   0  0  2  0  0  0  0  0  0  0  0  0
   20.1120   29.8546   35.6542 C   0  0  2  0  0  0  0  0  0  0  0  0
   20.7876   28.8384   36.4769 N   0  0  0  0  0  0  0  0  0  0  0  0
   14.9676   26.2987   35.3764 C   0  0  0  0  0  0  0  0  0  0  0  0
   17.7434   22.9469   31.0536 C   0  0  2  0  0  0  0  0  0  0  0  0
   16.4175   22.4466   31.0390 O   0  0  0  0  0  0  0  0  0  0  0  0
   19.4158   30.9074   36.5685 C   0  0  1  0  0  0  0  0  0  0  0  0
   20.3755   31.5189   37.4502 O   0  0  0  0  0  0  0  0  0  0  0  0
   16.0963   27.2236   35.9532 C   0  0  2  0  0  0  0  0  0  0  0  0
   15.5088   28.4431   36.5778 N   0  0  0  0  0  0  0  0  0  0  0  0
   18.6498   22.0642   31.9926 C   0  0  1  0  0  0  0  0  0  0  0  0
   18.6437   20.6536   31.5555 N   0  0  0  0  0  0  0  0  0  0  0  0
   18.7224   31.9547   35.6661 C   0  0  2  0  0  0  0  0  0  0  0  0
   18.0862   32.9391   36.4872 O   0  0  0  0  0  0  0  0  0  0  0  0
   17.0838   27.6608   34.8293 C   0  0  2  0  0  0  0  0  0  0  0  0
   20.1042   22.6324   31.9761 C   0  0  1  0  0  0  0  0  0  0  0  0
   20.6053   22.5474   30.6460 O   0  0  0  0  0  0  0  0  0  0  0  0
   17.6759   31.2103   34.7298 C   0  0  2  0  0  0  0  0  0  0  0  0
   18.3514   30.1902   33.8972 O   0  0  0  0  0  0  0  0  0  0  0  0
   17.6985   26.3959   34.1707 C   0  0  2  0  0  0  0  0  0  0  0  0
   18.5722   26.8222   33.1273 O   0  0  0  0  0  0  0  0  0  0  0  0
   20.0686   24.1246   32.4381 C   0  0  0  0  0  0  0  0  0  0  0  0
   19.1534   24.9291   31.5936 O   0  0  0  0  0  0  0  0  0  0  0  0
   16.9259   32.1842   33.7761 C   0  0  2  0  0  0  0  0  0  0  0  0
   15.9828   31.4445   32.9928 O   0  0  0  0  0  0  0  0  0  0  0  0
   16.6127   25.4885   33.5412 C   0  0  1  0  0  0  0  0  0  0  0  0
   17.2770   24.3248   32.9763 O   0  0  0  0  0  0  0  0  0  0  0  0
   17.8668   32.8896   32.8245 C   0  0  0  0  0  0  0  0  0  0  0  0
   21.0452   21.8383   32.8832 C   0  0  0  0  0  0  0  0  0  0  0  0
   17.8726   19.8805   32.5596 C   0  0  0  0  0  0  0  0  0  0  0  0
  1  2  1  1  0  0  0
  1  6  1  0  0  0  0
  1 23  1  0  0  0  0
  3  4  1  6  0  0  0
  3  8  1  0  0  0  0
  3 30  1  0  0  0  0
  5  9  1  0  0  0  0
  5 27  1  0  0  0  0
  5 31  1  1  0  0  0
  6  7  1  1  0  0  0
  6 11  1  0  0  0  0
  8 13  1  0  0  0  0
  9 10  1  1  0  0  0
  9 15  1  0  0  0  0
 11 12  1  6  0  0  0
 11 17  1  0  0  0  0
 13 14  1  6  0  0  0
 13 19  1  0  0  0  0
 15 16  1  6  0  0  0
 15 20  1  0  0  0  0
 16 34  1  0  0  0  0
 17 18  1  1  0  0  0
 17 22  1  0  0  0  0
 19  2  1  1  0  0  0
 19 24  1  0  0  0  0
 20 21  1  6  0  0  0
 20 26  1  0  0  0  0
 20 33  1  0  0  0  0
 22 23  1  6  0  0  0
 22 28  1  0  0  0  0
 24 25  1  6  0  0  0
 24 30  1  0  0  0  0
 26 27  1  0  0  0  0
 28 29  1  6  0  0  0
 28 32  1  0  0  0  0
 30 31  1  1  0  0  0
M  END
>  <CHROM.1>
-174.03413869,-171.59949042,-108.95551544,-178.60561937,156.91217650,-152.57101071
18.06174589,26.83536373,33.84747681,-1.59494925,-0.10855159,-2.78182393

>  <Name>
ligand

>  <RI>
0

>  <Rbt.Current_Directory>
/home/itssahil/PROJECTS/Mol_Feturizer/New_Systems/rnas/4p3s

>  <Rbt.Executable>
rbdock ($Id: //depot/dev/client3/rdock/2013.1/src/exe/rbdock.cxx#4 $)

>  <Rbt.Library>
libRbt.so (2013.1, Build901 2013/11/27)

>  <Rbt.Parameter_File>
/export/apps/rDock/src/rDock_2013.1_src/data/scripts/dock_solv.prm

>  <Rbt.Receptor>
prm/pocket_docking_8.prm

>  <SCORE>
-17.1178

>  <SCORE.INTER>
-12.8435

>  <SCORE.INTER.CONST>
1

>  <SCORE.INTER.POLAR>
0

>  <SCORE.INTER.ROT>
6

>  <SCORE.INTER.SOLV>
16.7691

>  <SCORE.INTER.VDW>
-21.752

>  <SCORE.INTER.norm>
-0.37775

>  <SCORE.INTRA>
-4.27432

>  <SCORE.INTRA.DIHEDRAL>
-8.69697

>  <SCORE.INTRA.DIHEDRAL.0>
15.8194

>  <SCORE.INTRA.POLAR>
0

>  <SCORE.INTRA.POLAR.0>
0

>  <SCORE.INTRA.REPUL>
0

>  <SCORE.INTRA.REPUL.0>
0

>  <SCORE.INTRA.SOLV>
-1.74533

>  <SCORE.INTRA.SOLV.lig_0>
-71.9159

>  <SCORE.INTRA.VDW>
0.946821

>  <SCORE.INTRA.VDW.0>
-3.53918

>  <SCORE.INTRA.norm>
-0.125715

>  <SCORE.RESTR>
0

>  <SCORE.RESTR.CAVITY>
0

>  <SCORE.RESTR.norm>
0

>  <SCORE.SYSTEM>
0

>  <SCORE.SYSTEM.CONST>
0

>  <SCORE.SYSTEM.DIHEDRAL>
0

>  <SCORE.SYSTEM.SOLV>
0

>  <SCORE.SYSTEM.norm>
0

>  <SCORE.heavy>
34

>  <SCORE.norm>
-0.503465

>  <RMSD>
9.355

$$$$
ligand
 OpenBabel01301917533D
libRbt.so/2013.1/901 2013/11/27
 34 36  0  0  0  0  0  0  0  0999 V2000
   18.6097   28.3162   37.4881 C   0  0  2  0  0  0  0  0  0  0  0  0
   18.5318   27.0030   36.9246 O   0  0  0  0  0  0  0  0  0  0  0  0
   15.4607   24.9830   34.7132 C   0  0  2  0  0  0  0  0  0  0  0  0
   14.4129   24.6871   33.7267 N   0  0  0  0  0  0  0  0  0  0  0  0
   17.1512   23.8208   31.8723 C   0  0  2  0  0  0  0  0  0  0  0  0
   19.4047   29.2321   36.4832 C   0  0  2  0  0  0  0  0  0  0  0  0
   18.7366   29.2767   35.1726 N   0  0  0  0  0  0  0  0  0  0  0  0
   15.0727   26.3231   35.4362 C   0  0  0  0  0  0  0  0  0  0  0  0
   17.5148   22.3252   31.5170 C   0  0  2  0  0  0  0  0  0  0  0  0
   16.5528   21.4410   32.0659 O   0  0  0  0  0  0  0  0  0  0  0  0
   20.8654   28.7131   36.3222 C   0  0  1  0  0  0  0  0  0  0  0  0
   21.5958   29.5475   35.4041 O   0  0  0  0  0  0  0  0  0  0  0  0
   16.1824   26.6280   36.5029 C   0  0  2  0  0  0  0  0  0  0  0  0
   15.8811   27.8956   37.2273 N   0  0  0  0  0  0  0  0  0  0  0  0
   18.9422   22.0136   32.1068 C   0  0  1  0  0  0  0  0  0  0  0  0
   19.3279   20.6134   31.8393 N   0  0  0  0  0  0  0  0  0  0  0  0
   21.5296   28.6846   37.7186 C   0  0  2  0  0  0  0  0  0  0  0  0
   22.8778   28.2217   37.5914 O   0  0  0  0  0  0  0  0  0  0  0  0
   17.5813   26.7556   35.8275 C   0  0  2  0  0  0  0  0  0  0  0  0
   19.9794   22.9939   31.4730 C   0  0  1  0  0  0  0  0  0  0  0  0
   20.0076   22.7715   30.0669 O   0  0  0  0  0  0  0  0  0  0  0  0
   20.6759   27.7418   38.6718 C   0  0  2  0  0  0  0  0  0  0  0  0
   19.2836   28.2311   38.7817 O   0  0  0  0  0  0  0  0  0  0  0  0
   17.9021   25.4400   35.0675 C   0  0  2  0  0  0  0  0  0  0  0  0
   19.1704   25.5946   34.4340 O   0  0  0  0  0  0  0  0  0  0  0  0
   19.5350   24.4617   31.7720 C   0  0  0  0  0  0  0  0  0  0  0  0
   18.1606   24.7200   31.2795 O   0  0  0  0  0  0  0  0  0  0  0  0
   21.2646   27.6511   40.1090 C   0  0  2  0  0  0  0  0  0  0  0  0
   22.6116   27.1708   40.0376 O   0  0  0  0  0  0  0  0  0  0  0  0
   16.8542   25.1397   33.9675 C   0  0  1  0  0  0  0  0  0  0  0  0
   17.2214   23.8839   33.3329 O   0  0  0  0  0  0  0  0  0  0  0  0
   20.4803   26.7028   40.9889 C   0  0  0  0  0  0  0  0  0  0  0  0
   21.3926   22.7675   32.0119 C   0  0  0  0  0  0  0  0  0  0  0  0
   19.3771   19.9090   33.1440 C   0  0  0  0  0  0  0  0  0  0  0  0
  1  2  1  6  0  0  0
  1  6  1  0  0  0  0
  1 23  1  0  0  0  0
  3  4  1  6  0  0  0
  3  8  1  0  0  0  0
  3 30  1  0  0  0  0
  5  9  1  0  0  0  0
  5 27  1  0  0  0  0
  5 31  1  1  0  0  0
  6  7  1  6  0  0  0
  6 11  1  0  0  0  0
  8 13  1  0  0  0  0
  9 10  1  1  0  0  0
  9 15  1  0  0  0  0
 11 12  1  6  0  0  0
 11 17  1  0  0  0  0
 13 14  1  6  0  0  0
 13 19  1  0  0  0  0
 15 16  1  6  0  0  0
 15 20  1  0  0  0  0
 16 34  1  0  0  0  0
 17 18  1  6  0  0  0
 17 22  1  0  0  0  0
 19  2  1  1  0  0  0
 19 24  1  0  0  0  0
 20 21  1  6  0  0  0
 20 26  1  0  0  0  0
 20 33  1  0  0  0  0
 22 23  1  1  0  0  0
 22 28  1  0  0  0  0
 24 25  1  6  0  0  0
 24 30  1  0  0  0  0
 26 27  1  0  0  0  0
 28 29  1  6  0  0  0
 28 32  1  0  0  0  0
 30 31  1  1  0  0  0
M  END
>  <CHROM.1>
-76.00734772,-77.87312053,-112.86584015,-57.88787563,108.52545685,-176.48534397
18.87248068,25.62366719,35.03068554,1.31831786,-0.09839576,0.82383713

>  <Name>
ligand

>  <RI>
0

>  <Rbt.Current_Directory>
/home/itssahil/PROJECTS/Mol_Feturizer/New_Systems/rnas/4p3s

>  <Rbt.Executable>
rbdock ($Id: //depot/dev/client3/rdock/2013.1/src/exe/rbdock.cxx#4 $)

>  <Rbt.Library>
libRbt.so (2013.1, Build901 2013/11/27)

>  <Rbt.Parameter_File>
/export/apps/rDock/src/rDock_2013.1_src/data/scripts/dock_solv.prm

>  <Rbt.Receptor>
prm/pocket_docking_5.prm

>  <SCORE>
-12.6075

>  <SCORE.INTER>
-11.7497

>  <SCORE.INTER.CONST>
1

>  <SCORE.INTER.POLAR>
0

>  <SCORE.INTER.ROT>
6

>  <SCORE.INTER.SOLV>
17.2903

>  <SCORE.INTER.VDW>
-21.1965

>  <SCORE.INTER.norm>
-0.345578

>  <SCORE.INTRA>
-0.85787

>  <SCORE.INTRA.DIHEDRAL>
-5.36498

>  <SCORE.INTRA.DIHEDRAL.0>
15.8194

>  <SCORE.INTRA.POLAR>
0

>  <SCORE.INTRA.POLAR.0>
0

>  <SCORE.INTRA.REPUL>
0

>  <SCORE.INTRA.REPUL.0>
0

>  <SCORE.INTRA.SOLV>
2.43294

>  <SCORE.INTRA.SOLV.lig_0>
-71.9159

>  <SCORE.INTRA.VDW>
0.608148

>  <SCORE.INTRA.VDW.0>
-3.53918

>  <SCORE.INTRA.norm>
-0.0252315

>  <SCORE.RESTR>
0

>  <SCORE.RESTR.CAVITY>
0

>  <SCORE.RESTR.norm>
0

>  <SCORE.SYSTEM>
0

>  <SCORE.SYSTEM.CONST>
0

>  <SCORE.SYSTEM.DIHEDRAL>
0

>  <SCORE.SYSTEM.SOLV>
0

>  <SCORE.SYSTEM.norm>
0

>  <SCORE.heavy>
34

>  <SCORE.norm>
-0.37081

>  <RMSD>
9.362

$$$$
ligand
 OpenBabel01301917533D
libRbt.so/2013.1/901 2013/11/27
 34 36  0  0  0  0  0  0  0  0999 V2000
   19.3899   28.8721   35.0902 C   0  0  2  0  0  0  0  0  0  0  0  0
   18.3346   28.2387   35.8206 O   0  0  0  0  0  0  0  0  0  0  0  0
   15.6531   25.0550   34.7834 C   0  0  2  0  0  0  0  0  0  0  0  0
   14.5498   24.2985   34.1759 N   0  0  0  0  0  0  0  0  0  0  0  0
   17.7085   24.4065   31.6508 C   0  0  2  0  0  0  0  0  0  0  0  0
   20.4590   29.3874   36.1257 C   0  0  2  0  0  0  0  0  0  0  0  0
   20.9896   28.2748   36.9299 N   0  0  0  0  0  0  0  0  0  0  0  0
   15.0387   26.3255   35.4745 C   0  0  0  0  0  0  0  0  0  0  0  0
   17.6792   22.9235   31.1075 C   0  0  2  0  0  0  0  0  0  0  0  0
   16.3575   22.4130   31.1410 O   0  0  0  0  0  0  0  0  0  0  0  0
   19.8301   30.4681   37.0560 C   0  0  1  0  0  0  0  0  0  0  0  0
   20.8040   30.9419   38.0043 O   0  0  0  0  0  0  0  0  0  0  0  0
   16.2155   27.1225   36.1396 C   0  0  2  0  0  0  0  0  0  0  0  0
   15.7043   28.3506   36.8126 N   0  0  0  0  0  0  0  0  0  0  0  0
   18.6253   22.0495   32.0150 C   0  0  1  0  0  0  0  0  0  0  0  0
   18.6145   20.6381   31.5806 N   0  0  0  0  0  0  0  0  0  0  0  0
   19.2888   31.6166   36.1728 C   0  0  2  0  0  0  0  0  0  0  0  0
   18.7170   32.6271   37.0095 O   0  0  0  0  0  0  0  0  0  0  0  0
   17.2759   27.5374   35.0753 C   0  0  2  0  0  0  0  0  0  0  0  0
   20.0737   22.6288   31.9457 C   0  0  1  0  0  0  0  0  0  0  0  0
   20.5277   22.5451   30.5987 O   0  0  0  0  0  0  0  0  0  0  0  0
   18.2178   31.0218   35.1602 C   0  0  2  0  0  0  0  0  0  0  0  0
   18.8256   29.9724   34.3121 O   0  0  0  0  0  0  0  0  0  0  0  0
   17.8117   26.2637   34.3665 C   0  0  2  0  0  0  0  0  0  0  0  0
   18.7550   26.6727   33.3782 O   0  0  0  0  0  0  0  0  0  0  0  0
   20.0432   24.1215   32.4064 C   0  0  0  0  0  0  0  0  0  0  0  0
   19.0922   24.9174   31.5938 O   0  0  0  0  0  0  0  0  0  0  0  0
   17.6152   32.1053   34.2203 C   0  0  2  0  0  0  0  0  0  0  0  0
   16.9646   33.1065   35.0106 O   0  0  0  0  0  0  0  0  0  0  0  0
   16.6812   25.4834   33.6513 C   0  0  1  0  0  0  0  0  0  0  0  0
   17.2711   24.3014   33.0435 O   0  0  0  0  0  0  0  0  0  0  0  0
   16.5912   31.5293   33.2672 C   0  0  0  0  0  0  0  0  0  0  0  0
   21.0525   21.8436   32.8199 C   0  0  0  0  0  0  0  0  0  0  0  0
   17.8778   19.8624   32.6084 C   0  0  0  0  0  0  0  0  0  0  0  0
  1  2  1  1  0  0  0
  1  6  1  0  0  0  0
  1 23  1  0  0  0  0
  3  4  1  6  0  0  0
  3  8  1  0  0  0  0
  3 30  1  0  0  0  0
  5  9  1  0  0  0  0
  5 27  1  0  0  0  0
  5 31  1  1  0  0  0
  6  7  1  1  0  0  0
  6 11  1  0  0  0  0
  8 13  1  0  0  0  0
  9 10  1  1  0  0  0
  9 15  1  0  0  0  0
 11 12  1  1  0  0  0
 11 17  1  0  0  0  0
 13 14  1  6  0  0  0
 13 19  1  0  0  0  0
 15 16  1  6  0  0  0
 15 20  1  0  0  0  0
 16 34  1  0  0  0  0
 17 18  1  1  0  0  0
 17 22  1  0  0  0  0
 19  2  1  1  0  0  0
 19 24  1  0  0  0  0
 20 21  1  6  0  0  0
 20 26  1  0  0  0  0
 20 33  1  0  0  0  0
 22 23  1  6  0  0  0
 22 28  1  0  0  0  0
 24 25  1  6  0  0  0
 24 30  1  0  0  0  0
 26 27  1  0  0  0  0
 28 29  1  1  0  0  0
 28 32  1  0  0  0  0
 30 31  1  1  0  0  0
M  END
>  <CHROM.1>
-173.33637027,-173.30749255,-108.58646722,-60.11786437,151.61297554,-155.68164854
18.20925266,26.72015759,34.11934202,-1.55879309,0.00006272,-2.71259959

>  <Name>
ligand

>  <RI>
0

>  <Rbt.Current_Directory>
/home/itssahil/PROJECTS/Mol_Feturizer/New_Systems/rnas/4p3s

>  <Rbt.Executable>
rbdock ($Id: //depot/dev/client3/rdock/2013.1/src/exe/rbdock.cxx#4 $)

>  <Rbt.Library>
libRbt.so (2013.1, Build901 2013/11/27)

>  <Rbt.Parameter_File>
/export/apps/rDock/src/rDock_2013.1_src/data/scripts/dock_solv.prm

>  <Rbt.Receptor>
prm/pocket_docking_6.prm

>  <SCORE>
-16.7267

>  <SCORE.INTER>
-12.2492

>  <SCORE.INTER.CONST>
1

>  <SCORE.INTER.POLAR>
0

>  <SCORE.INTER.ROT>
6

>  <SCORE.INTER.SOLV>
14.7619

>  <SCORE.INTER.VDW>
-20.6868

>  <SCORE.INTER.norm>
-0.36027

>  <SCORE.INTRA>
-4.47752

>  <SCORE.INTRA.DIHEDRAL>
-8.40984

>  <SCORE.INTRA.DIHEDRAL.0>
15.8194

>  <SCORE.INTRA.POLAR>
0

>  <SCORE.INTRA.POLAR.0>
0

>  <SCORE.INTRA.REPUL>
0

>  <SCORE.INTRA.REPUL.0>
0

>  <SCORE.INTRA.SOLV>
-1.53149

>  <SCORE.INTRA.SOLV.lig_0>
-71.9159

>  <SCORE.INTRA.VDW>
0.493147

>  <SCORE.INTRA.VDW.0>
-3.53918

>  <SCORE.INTRA.norm>
-0.131692

>  <SCORE.RESTR>
0

>  <SCORE.RESTR.CAVITY>
0

>  <SCORE.RESTR.norm>
0

>  <SCORE.SYSTEM>
0

>  <SCORE.SYSTEM.CONST>
0

>  <SCORE.SYSTEM.DIHEDRAL>
0

>  <SCORE.SYSTEM.SOLV>
0

>  <SCORE.SYSTEM.norm>
0

>  <SCORE.heavy>
34

>  <SCORE.norm>
-0.491962

>  <RMSD>
9.362

$$$$
ligand
 OpenBabel01301917533D
libRbt.so/2013.1/901 2013/11/27
 34 36  0  0  0  0  0  0  0  0999 V2000
   19.0420   29.1768   34.7282 C   0  0  2  0  0  0  0  0  0  0  0  0
   18.0890   28.4566   35.5163 O   0  0  0  0  0  0  0  0  0  0  0  0
   15.6273   25.0391   34.7020 C   0  0  2  0  0  0  0  0  0  0  0  0
   14.5707   24.1749   34.1587 N   0  0  0  0  0  0  0  0  0  0  0  0
   17.7500   24.4137   31.5890 C   0  0  2  0  0  0  0  0  0  0  0  0
   20.0780   29.8469   35.7072 C   0  0  2  0  0  0  0  0  0  0  0  0
   20.7564   28.8316   36.5287 N   0  0  0  0  0  0  0  0  0  0  0  0
   14.9354   26.2962   35.3424 C   0  0  0  0  0  0  0  0  0  0  0  0
   17.7241   22.9305   31.0461 C   0  0  2  0  0  0  0  0  0  0  0  0
   16.3966   22.4344   31.0328 O   0  0  0  0  0  0  0  0  0  0  0  0
   19.3602   30.8842   36.6227 C   0  0  1  0  0  0  0  0  0  0  0  0
   20.3036   31.4991   37.5195 O   0  0  0  0  0  0  0  0  0  0  0  0
   16.0634   27.2090   35.9394 C   0  0  2  0  0  0  0  0  0  0  0  0
   15.4771   28.4303   36.5616 N   0  0  0  0  0  0  0  0  0  0  0  0
   18.6277   22.0474   31.9872 C   0  0  1  0  0  0  0  0  0  0  0  0
   18.6171   20.6357   31.5537 N   0  0  0  0  0  0  0  0  0  0  0  0
   18.6645   31.9310   35.7215 C   0  0  2  0  0  0  0  0  0  0  0  0
   18.0085   32.9013   36.5438 O   0  0  0  0  0  0  0  0  0  0  0  0
   17.0701   27.6434   34.8316 C   0  0  2  0  0  0  0  0  0  0  0  0
   20.0839   22.6109   31.9692 C   0  0  1  0  0  0  0  0  0  0  0  0
   20.5846   22.5209   30.6393 O   0  0  0  0  0  0  0  0  0  0  0  0
   17.6365   31.1826   34.7681 C   0  0  2  0  0  0  0  0  0  0  0  0
   18.3323   30.1772   33.9343 O   0  0  0  0  0  0  0  0  0  0  0  0
   17.6836   26.3767   34.1755 C   0  0  2  0  0  0  0  0  0  0  0  0
   18.5753   26.8007   33.1465 O   0  0  0  0  0  0  0  0  0  0  0  0
   20.0531   24.1043   32.4275 C   0  0  0  0  0  0  0  0  0  0  0  0
   19.1403   24.9096   31.5810 O   0  0  0  0  0  0  0  0  0  0  0  0
   16.8855   32.1559   33.8145 C   0  0  2  0  0  0  0  0  0  0  0  0
   15.9425   31.4155   33.0318 O   0  0  0  0  0  0  0  0  0  0  0  0
   16.5995   25.4812   33.5265 C   0  0  1  0  0  0  0  0  0  0  0  0
   17.2621   24.3148   32.9653 O   0  0  0  0  0  0  0  0  0  0  0  0
   17.8257   32.8616   32.8623 C   0  0  0  0  0  0  0  0  0  0  0  0
   21.0224   21.8161   32.8783 C   0  0  0  0  0  0  0  0  0  0  0  0
   17.8651   19.8634   32.5729 C   0  0  0  0  0  0  0  0  0  0  0  0
  1  2  1  1  0  0  0
  1  6  1  0  0  0  0
  1 23  1  0  0  0  0
  3  4  1  6  0  0  0
  3  8  1  0  0  0  0
  3 30  1  0  0  0  0
  5  9  1  0  0  0  0
  5 27  1  0  0  0  0
  5 31  1  1  0  0  0
  6  7  1  1  0  0  0
  6 11  1  0  0  0  0
  8 13  1  0  0  0  0
  9 10  1  1  0  0  0
  9 15  1  0  0  0  0
 11 12  1  1  0  0  0
 11 17  1  0  0  0  0
 13 14  1  6  0  0  0
 13 19  1  0  0  0  0
 15 16  1  6  0  0  0
 15 20  1  0  0  0  0
 16 34  1  0  0  0  0
 17 18  1  1  0  0  0
 17 22  1  0  0  0  0
 19  2  1  1  0  0  0
 19 24  1  0  0  0  0
 20 21  1  6  0  0  0
 20 26  1  0  0  0  0
 20 33  1  0  0  0  0
 22 23  1  6  0  0  0
 22 28  1  0  0  0  0
 24 25  1  6  0  0  0
 24 30  1  0  0  0  0
 26 27  1  0  0  0  0
 28 29  1  6  0  0  0
 28 32  1  0  0  0  0
 30 31  1  1  0  0  0
M  END
>  <CHROM.1>
-175.02211922,-170.36280787,-109.98786298,-177.59974559,155.91568934,-152.46441875
18.03345253,26.81764055,33.85917599,-1.59818562,-0.08939582,-2.77553472

>  <Name>
ligand

>  <RI>
0

>  <Rbt.Current_Directory>
/home/itssahil/PROJECTS/Mol_Feturizer/New_Systems/rnas/4p3s

>  <Rbt.Executable>
rbdock ($Id: //depot/dev/client3/rdock/2013.1/src/exe/rbdock.cxx#4 $)

>  <Rbt.Library>
libRbt.so (2013.1, Build901 2013/11/27)

>  <Rbt.Parameter_File>
/export/apps/rDock/src/rDock_2013.1_src/data/scripts/dock_solv.prm

>  <Rbt.Receptor>
prm/pocket_docking_6.prm

>  <SCORE>
-17.069

>  <SCORE.INTER>
-12.8179

>  <SCORE.INTER.CONST>
1

>  <SCORE.INTER.POLAR>
0

>  <SCORE.INTER.ROT>
6

>  <SCORE.INTER.SOLV>
16.789

>  <SCORE.INTER.VDW>
-21.7416

>  <SCORE.INTER.norm>
-0.376998

>  <SCORE.INTRA>
-4.25104

>  <SCORE.INTRA.DIHEDRAL>
-8.41726

>  <SCORE.INTRA.DIHEDRAL.0>
15.8194

>  <SCORE.INTRA.POLAR>
0

>  <SCORE.INTRA.POLAR.0>
0

>  <SCORE.INTRA.REPUL>
0

>  <SCORE.INTRA.REPUL.0>
0

>  <SCORE.INTRA.SOLV>
-1.70087

>  <SCORE.INTRA.SOLV.lig_0>
-71.9159

>  <SCORE.INTRA.VDW>
0.808031

>  <SCORE.INTRA.VDW.0>
-3.53918

>  <SCORE.INTRA.norm>
-0.12503

>  <SCORE.RESTR>
0

>  <SCORE.RESTR.CAVITY>
0

>  <SCORE.RESTR.norm>
0

>  <SCORE.SYSTEM>
0

>  <SCORE.SYSTEM.CONST>
0

>  <SCORE.SYSTEM.DIHEDRAL>
0

>  <SCORE.SYSTEM.SOLV>
0

>  <SCORE.SYSTEM.norm>
0

>  <SCORE.heavy>
34

>  <SCORE.norm>
-0.502028

>  <RMSD>
9.365

$$$$
ligand
 OpenBabel01301917533D
libRbt.so/2013.1/901 2013/11/27
 34 36  0  0  0  0  0  0  0  0999 V2000
   17.8693   29.9508   35.8003 C   0  0  2  0  0  0  0  0  0  0  0  0
   18.1754   28.5984   35.4461 O   0  0  0  0  0  0  0  0  0  0  0  0
   15.6657   25.1818   34.7904 C   0  0  2  0  0  0  0  0  0  0  0  0
   14.5876   24.3126   34.2995 N   0  0  0  0  0  0  0  0  0  0  0  0
   17.6771   24.4508   31.6309 C   0  0  2  0  0  0  0  0  0  0  0  0
   17.8698   30.8126   34.4819 C   0  0  2  0  0  0  0  0  0  0  0  0
   16.8818   30.2997   33.5193 N   0  0  0  0  0  0  0  0  0  0  0  0
   15.0016   26.4608   35.4167 C   0  0  0  0  0  0  0  0  0  0  0  0
   17.6535   22.9473   31.1471 C   0  0  2  0  0  0  0  0  0  0  0  0
   16.3346   22.4319   31.2062 O   0  0  0  0  0  0  0  0  0  0  0  0
   19.2905   30.8150   33.8410 C   0  0  1  0  0  0  0  0  0  0  0  0
   19.2955   31.6015   32.6353 O   0  0  0  0  0  0  0  0  0  0  0  0
   16.1530   27.3793   35.9580 C   0  0  2  0  0  0  0  0  0  0  0  0
   15.5938   28.6213   36.5640 N   0  0  0  0  0  0  0  0  0  0  0  0
   18.6076   22.1148   32.0847 C   0  0  1  0  0  0  0  0  0  0  0  0
   18.6024   20.6872   31.7066 N   0  0  0  0  0  0  0  0  0  0  0  0
   20.2945   31.3619   34.8827 C   0  0  2  0  0  0  0  0  0  0  0  0
   21.6055   31.3840   34.3092 O   0  0  0  0  0  0  0  0  0  0  0  0
   17.1315   27.7763   34.8116 C   0  0  2  0  0  0  0  0  0  0  0  0
   20.0527   22.6981   31.9866 C   0  0  1  0  0  0  0  0  0  0  0  0
   20.5019   22.5634   30.6422 O   0  0  0  0  0  0  0  0  0  0  0  0
   20.2390   30.4427   36.1781 C   0  0  2  0  0  0  0  0  0  0  0  0
   18.8739   30.4249   36.7493 O   0  0  0  0  0  0  0  0  0  0  0  0
   17.7167   26.4878   34.1721 C   0  0  2  0  0  0  0  0  0  0  0  0
   18.5824   26.8775   33.1079 O   0  0  0  0  0  0  0  0  0  0  0  0
   20.0161   24.2078   32.3878 C   0  0  0  0  0  0  0  0  0  0  0  0
   19.0579   24.9660   31.5482 O   0  0  0  0  0  0  0  0  0  0  0  0
   21.2162   30.9169   37.2919 C   0  0  2  0  0  0  0  0  0  0  0  0
   21.0721   32.3296   37.4757 O   0  0  0  0  0  0  0  0  0  0  0  0
   16.6079   25.5850   33.5771 C   0  0  1  0  0  0  0  0  0  0  0  0
   17.2456   24.3988   33.0285 O   0  0  0  0  0  0  0  0  0  0  0  0
   22.6612   30.6402   36.9400 C   0  0  0  0  0  0  0  0  0  0  0  0
   21.0389   21.9532   32.8873 C   0  0  0  0  0  0  0  0  0  0  0  0
   18.0370   19.9272   32.8483 C   0  0  0  0  0  0  0  0  0  0  0  0
  1  2  1  6  0  0  0
  1  6  1  0  0  0  0
  1 23  1  0  0  0  0
  3  4  1  6  0  0  0
  3  8  1  0  0  0  0
  3 30  1  0  0  0  0
  5  9  1  0  0  0  0
  5 27  1  0  0  0  0
  5 31  1  1  0  0  0
  6  7  1  6  0  0  0
  6 11  1  0  0  0  0
  8 13  1  0  0  0  0
  9 10  1  1  0  0  0
  9 15  1  0  0  0  0
 11 12  1  6  0  0  0
 11 17  1  0  0  0  0
 13 14  1  6  0  0  0
 13 19  1  0  0  0  0
 15 16  1  6  0  0  0
 15 20  1  0  0  0  0
 16 34  1  0  0  0  0
 17 18  1  6  0  0  0
 17 22  1  0  0  0  0
 19  2  1  1  0  0  0
 19 24  1  0  0  0  0
 20 21  1  6  0  0  0
 20 26  1  0  0  0  0
 20 33  1  0  0  0  0
 22 23  1  1  0  0  0
 22 28  1  0  0  0  0
 24 25  1  6  0  0  0
 24 30  1  0  0  0  0
 26 27  1  0  0  0  0
 28 29  1  6  0  0  0
 28 32  1  0  0  0  0
 30 31  1  1  0  0  0
M  END
>  <CHROM.1>
-75.78086608,-75.85459366,-116.02243361,47.42850999,155.00906326,-153.50647270
18.48883592,26.82056205,33.96560630,1.40279522,0.22739863,0.44206257

>  <Name>
ligand

>  <RI>
0

>  <Rbt.Current_Directory>
/home/itssahil/PROJECTS/Mol_Feturizer/New_Systems/rnas/4p3s

>  <Rbt.Executable>
rbdock ($Id: //depot/dev/client3/rdock/2013.1/src/exe/rbdock.cxx#4 $)

>  <Rbt.Library>
libRbt.so (2013.1, Build901 2013/11/27)

>  <Rbt.Parameter_File>
/export/apps/rDock/src/rDock_2013.1_src/data/scripts/dock_solv.prm

>  <Rbt.Receptor>
prm/pocket_docking_5.prm

>  <SCORE>
-11.8145

>  <SCORE.INTER>
-11.4362

>  <SCORE.INTER.CONST>
1

>  <SCORE.INTER.POLAR>
0

>  <SCORE.INTER.ROT>
6

>  <SCORE.INTER.SOLV>
17.9265

>  <SCORE.INTER.VDW>
-21.1996

>  <SCORE.INTER.norm>
-0.336358

>  <SCORE.INTRA>
-0.378305

>  <SCORE.INTRA.DIHEDRAL>
-6.10706

>  <SCORE.INTRA.DIHEDRAL.0>
15.8194

>  <SCORE.INTRA.POLAR>
0

>  <SCORE.INTRA.POLAR.0>
0

>  <SCORE.INTRA.REPUL>
0

>  <SCORE.INTRA.REPUL.0>
0

>  <SCORE.INTRA.SOLV>
2.44676

>  <SCORE.INTRA.SOLV.lig_0>
-71.9159

>  <SCORE.INTRA.VDW>
1.45184

>  <SCORE.INTRA.VDW.0>
-3.53918

>  <SCORE.INTRA.norm>
-0.0111266

>  <SCORE.RESTR>
0

>  <SCORE.RESTR.CAVITY>
0

>  <SCORE.RESTR.norm>
0

>  <SCORE.SYSTEM>
0

>  <SCORE.SYSTEM.CONST>
0

>  <SCORE.SYSTEM.DIHEDRAL>
0

>  <SCORE.SYSTEM.SOLV>
0

>  <SCORE.SYSTEM.norm>
0

>  <SCORE.heavy>
34

>  <SCORE.norm>
-0.347485

>  <RMSD>
9.368

$$$$
ligand
 OpenBabel01301917533D
libRbt.so/2013.1/901 2013/11/27
 34 36  0  0  0  0  0  0  0  0999 V2000
   17.4572   28.8888   37.7107 C   0  0  2  0  0  0  0  0  0  0  0  0
   17.9176   27.6421   37.1799 O   0  0  0  0  0  0  0  0  0  0  0  0
   15.7078   24.9271   34.7005 C   0  0  2  0  0  0  0  0  0  0  0  0
   14.9674   24.3556   33.5673 N   0  0  0  0  0  0  0  0  0  0  0  0
   17.4423   23.2455   32.7123 C   0  0  2  0  0  0  0  0  0  0  0  0
   18.7171   29.7339   38.1340 C   0  0  2  0  0  0  0  0  0  0  0  0
   19.6052   29.9646   36.9833 N   0  0  0  0  0  0  0  0  0  0  0  0
   15.0144   26.2822   35.0905 C   0  0  0  0  0  0  0  0  0  0  0  0
   17.9648   21.7628   32.8673 C   0  0  2  0  0  0  0  0  0  0  0  0
   17.3388   21.1332   33.9720 O   0  0  0  0  0  0  0  0  0  0  0  0
   19.4944   29.0077   39.2732 C   0  0  1  0  0  0  0  0  0  0  0  0
   20.6471   29.7768   39.6631 O   0  0  0  0  0  0  0  0  0  0  0  0
   15.7941   26.8821   36.3130 C   0  0  2  0  0  0  0  0  0  0  0  0
   15.1918   28.1787   36.7356 N   0  0  0  0  0  0  0  0  0  0  0  0
   19.5253   21.8118   33.0790 C   0  0  1  0  0  0  0  0  0  0  0  0
   20.0737   20.4537   33.2676 N   0  0  0  0  0  0  0  0  0  0  0  0
   18.5275   28.7880   40.4601 C   0  0  2  0  0  0  0  0  0  0  0  0
   19.2257   28.1323   41.5234 O   0  0  0  0  0  0  0  0  0  0  0  0
   17.2925   27.1173   35.9543 C   0  0  2  0  0  0  0  0  0  0  0  0
   20.1852   22.4976   31.8410 C   0  0  1  0  0  0  0  0  0  0  0  0
   19.9050   21.7102   30.6882 O   0  0  0  0  0  0  0  0  0  0  0  0
   17.2883   27.9287   39.9579 C   0  0  2  0  0  0  0  0  0  0  0  0
   16.5866   28.6184   38.8525 O   0  0  0  0  0  0  0  0  0  0  0  0
   17.9273   25.7717   35.5096 C   0  0  2  0  0  0  0  0  0  0  0  0
   19.2868   26.0202   35.1577 O   0  0  0  0  0  0  0  0  0  0  0  0
   19.5766   23.9267   31.6714 C   0  0  0  0  0  0  0  0  0  0  0  0
   18.1000   23.8732   31.5495 O   0  0  0  0  0  0  0  0  0  0  0  0
   16.2512   27.6568   41.0853 C   0  0  2  0  0  0  0  0  0  0  0  0
   16.9058   27.0107   42.1826 O   0  0  0  0  0  0  0  0  0  0  0  0
   17.2148   25.1807   34.2681 C   0  0  1  0  0  0  0  0  0  0  0  0
   17.8576   23.9170   33.9446 O   0  0  0  0  0  0  0  0  0  0  0  0
   15.1263   26.7576   40.6219 C   0  0  0  0  0  0  0  0  0  0  0  0
   21.7046   22.6018   31.9797 C   0  0  0  0  0  0  0  0  0  0  0  0
   20.3796   20.2944   34.7105 C   0  0  0  0  0  0  0  0  0  0  0  0
  1  2  1  1  0  0  0
  1  6  1  0  0  0  0
  1 23  1  0  0  0  0
  3  4  1  6  0  0  0
  3  8  1  0  0  0  0
  3 30  1  0  0  0  0
  5  9  1  0  0  0  0
  5 27  1  0  0  0  0
  5 31  1  1  0  0  0
  6  7  1  6  0  0  0
  6 11  1  0  0  0  0
  8 13  1  0  0  0  0
  9 10  1  1  0  0  0
  9 15  1  0  0  0  0
 11 12  1  1  0  0  0
 11 17  1  0  0  0  0
 13 14  1  6  0  0  0
 13 19  1  0  0  0  0
 15 16  1  6  0  0  0
 15 20  1  0  0  0  0
 16 34  1  0  0  0  0
 17 18  1  1  0  0  0
 17 22  1  0  0  0  0
 19  2  1  1  0  0  0
 19 24  1  0  0  0  0
 20 21  1  6  0  0  0
 20 26  1  0  0  0  0
 20 33  1  0  0  0  0
 22 23  1  6  0  0  0
 22 28  1  0  0  0  0
 24 25  1  6  0  0  0
 24 30  1  0  0  0  0
 26 27  1  0  0  0  0
 28 29  1  1  0  0  0
 28 32  1  0  0  0  0
 30 31  1  1  0  0  0
M  END
>  <CHROM.1>
-136.59022935,-62.17575383,-104.60550449,-56.44572038,71.08100022,-163.45625865
18.03012697,25.62608715,35.99556524,1.71078343,-0.01739141,0.86294931

>  <Name>
ligand

>  <RI>
0

>  <Rbt.Current_Directory>
/home/itssahil/PROJECTS/Mol_Feturizer/New_Systems/rnas/4p3s

>  <Rbt.Executable>
rbdock ($Id: //depot/dev/client3/rdock/2013.1/src/exe/rbdock.cxx#4 $)

>  <Rbt.Library>
libRbt.so (2013.1, Build901 2013/11/27)

>  <Rbt.Parameter_File>
/export/apps/rDock/src/rDock_2013.1_src/data/scripts/dock_solv.prm

>  <Rbt.Receptor>
prm/pocket_docking_7.prm

>  <SCORE>
-11.8043

>  <SCORE.INTER>
-11.8606

>  <SCORE.INTER.CONST>
1

>  <SCORE.INTER.POLAR>
0

>  <SCORE.INTER.ROT>
6

>  <SCORE.INTER.SOLV>
13.5197

>  <SCORE.INTER.VDW>
-20.0136

>  <SCORE.INTER.norm>
-0.34884

>  <SCORE.INTRA>
0.0563088

>  <SCORE.INTRA.DIHEDRAL>
-6.85395

>  <SCORE.INTRA.DIHEDRAL.0>
15.8194

>  <SCORE.INTRA.POLAR>
0

>  <SCORE.INTRA.POLAR.0>
0

>  <SCORE.INTRA.REPUL>
0

>  <SCORE.INTRA.REPUL.0>
0

>  <SCORE.INTRA.SOLV>
2.22844

>  <SCORE.INTRA.SOLV.lig_0>
-71.9159

>  <SCORE.INTRA.VDW>
2.36906

>  <SCORE.INTRA.VDW.0>
-3.53918

>  <SCORE.INTRA.norm>
0.00165614

>  <SCORE.RESTR>
0

>  <SCORE.RESTR.CAVITY>
0

>  <SCORE.RESTR.norm>
0

>  <SCORE.SYSTEM>
0

>  <SCORE.SYSTEM.CONST>
0

>  <SCORE.SYSTEM.DIHEDRAL>
0

>  <SCORE.SYSTEM.SOLV>
0

>  <SCORE.SYSTEM.norm>
0

>  <SCORE.heavy>
34

>  <SCORE.norm>
-0.347184

>  <RMSD>
9.368

$$$$
ligand
 OpenBabel01301917533D
libRbt.so/2013.1/901 2013/11/27
 34 36  0  0  0  0  0  0  0  0999 V2000
   19.4729   28.8762   34.9649 C   0  0  2  0  0  0  0  0  0  0  0  0
   18.4092   28.2745   35.7096 O   0  0  0  0  0  0  0  0  0  0  0  0
   15.6628   25.1265   34.7350 C   0  0  2  0  0  0  0  0  0  0  0  0
   14.5427   24.3816   34.1441 N   0  0  0  0  0  0  0  0  0  0  0  0
   17.7083   24.3923   31.6108 C   0  0  2  0  0  0  0  0  0  0  0  0
   20.5408   29.4164   35.9890 C   0  0  2  0  0  0  0  0  0  0  0  0
   21.0588   28.3262   36.8311 N   0  0  0  0  0  0  0  0  0  0  0  0
   15.0758   26.4197   35.4075 C   0  0  0  0  0  0  0  0  0  0  0  0
   17.6754   22.9003   31.0930 C   0  0  2  0  0  0  0  0  0  0  0  0
   16.3507   22.3975   31.1244 O   0  0  0  0  0  0  0  0  0  0  0  0
   19.9155   30.5311   36.8809 C   0  0  1  0  0  0  0  0  0  0  0  0
   20.8883   31.0276   37.8187 O   0  0  0  0  0  0  0  0  0  0  0  0
   16.2703   27.2047   36.0549 C   0  0  2  0  0  0  0  0  0  0  0  0
   15.7856   28.4532   36.7096 N   0  0  0  0  0  0  0  0  0  0  0  0
   18.6092   22.0372   32.0232 C   0  0  1  0  0  0  0  0  0  0  0  0
   18.5943   20.6185   31.6131 N   0  0  0  0  0  0  0  0  0  0  0  0
   19.3874   31.6547   35.9586 C   0  0  2  0  0  0  0  0  0  0  0  0
   18.8192   32.6957   36.7595 O   0  0  0  0  0  0  0  0  0  0  0  0
   17.3342   27.5816   34.9799 C   0  0  2  0  0  0  0  0  0  0  0  0
   20.0613   22.6074   31.9559 C   0  0  1  0  0  0  0  0  0  0  0  0
   20.5258   22.4981   30.6144 O   0  0  0  0  0  0  0  0  0  0  0  0
   18.3170   31.0359   34.9600 C   0  0  2  0  0  0  0  0  0  0  0  0
   18.9210   29.9552   34.1490 O   0  0  0  0  0  0  0  0  0  0  0  0
   17.8425   26.2865   34.2901 C   0  0  2  0  0  0  0  0  0  0  0  0
   18.7894   26.6610   33.2917 O   0  0  0  0  0  0  0  0  0  0  0  0
   20.0351   24.1081   32.3905 C   0  0  0  0  0  0  0  0  0  0  0  0
   19.0951   24.8948   31.5565 O   0  0  0  0  0  0  0  0  0  0  0  0
   17.7275   32.0931   33.9827 C   0  0  2  0  0  0  0  0  0  0  0  0
   17.0969   33.1336   34.7377 O   0  0  0  0  0  0  0  0  0  0  0  0
   16.6944   25.5165   33.5921 C   0  0  1  0  0  0  0  0  0  0  0  0
   17.2589   24.3135   33.0015 O   0  0  0  0  0  0  0  0  0  0  0  0
   16.6898   31.4987   33.0561 C   0  0  0  0  0  0  0  0  0  0  0  0
   21.0287   21.8323   32.8516 C   0  0  0  0  0  0  0  0  0  0  0  0
   17.8174   19.8698   32.6312 C   0  0  0  0  0  0  0  0  0  0  0  0
  1  2  1  1  0  0  0
  1  6  1  0  0  0  0
  1 23  1  0  0  0  0
  3  4  1  6  0  0  0
  3  8  1  0  0  0  0
  3 30  1  0  0  0  0
  5  9  1  0  0  0  0
  5 27  1  0  0  0  0
  5 31  1  1  0  0  0
  6  7  1  1  0  0  0
  6 11  1  0  0  0  0
  8 13  1  0  0  0  0
  9 10  1  1  0  0  0
  9 15  1  0  0  0  0
 11 12  1  1  0  0  0
 11 17  1  0  0  0  0
 13 14  1  6  0  0  0
 13 19  1  0  0  0  0
 15 16  1  6  0  0  0
 15 20  1  0  0  0  0
 16 34  1  0  0  0  0
 17 18  1  1  0  0  0
 17 22  1  0  0  0  0
 19  2  1  1  0  0  0
 19 24  1  0  0  0  0
 20 21  1  6  0  0  0
 20 26  1  0  0  0  0
 20 33  1  0  0  0  0
 22 23  1  6  0  0  0
 22 28  1  0  0  0  0
 24 25  1  6  0  0  0
 24 30  1  0  0  0  0
 26 27  1  0  0  0  0
 28 29  1  1  0  0  0
 28 32  1  0  0  0  0
 30 31  1  1  0  0  0
M  END
>  <CHROM.1>
-174.58901686,-173.26481468,-107.26197786,-59.31594133,152.37409392,-156.84679184
18.24957518,26.74017622,34.02807293,-1.54559552,0.00503592,-2.73291029

>  <Name>
ligand

>  <RI>
0

>  <Rbt.Current_Directory>
/home/itssahil/PROJECTS/Mol_Feturizer/New_Systems/rnas/4p3s

>  <Rbt.Executable>
rbdock ($Id: //depot/dev/client3/rdock/2013.1/src/exe/rbdock.cxx#4 $)

>  <Rbt.Library>
libRbt.so (2013.1, Build901 2013/11/27)

>  <Rbt.Parameter_File>
/export/apps/rDock/src/rDock_2013.1_src/data/scripts/dock_solv.prm

>  <Rbt.Receptor>
prm/pocket_docking_6.prm

>  <SCORE>
-16.7277

>  <SCORE.INTER>
-12.1523

>  <SCORE.INTER.CONST>
1

>  <SCORE.INTER.POLAR>
0

>  <SCORE.INTER.ROT>
6

>  <SCORE.INTER.SOLV>
15.2382

>  <SCORE.INTER.VDW>
-20.7809

>  <SCORE.INTER.norm>
-0.357421

>  <SCORE.INTRA>
-4.57542

>  <SCORE.INTRA.DIHEDRAL>
-8.84828

>  <SCORE.INTRA.DIHEDRAL.0>
15.8194

>  <SCORE.INTRA.POLAR>
0

>  <SCORE.INTRA.POLAR.0>
0

>  <SCORE.INTRA.REPUL>
0

>  <SCORE.INTRA.REPUL.0>
0

>  <SCORE.INTRA.SOLV>
-1.55968

>  <SCORE.INTRA.SOLV.lig_0>
-71.9159

>  <SCORE.INTRA.VDW>
0.628558

>  <SCORE.INTRA.VDW.0>
-3.53918

>  <SCORE.INTRA.norm>
-0.134571

>  <SCORE.RESTR>
0

>  <SCORE.RESTR.CAVITY>
0

>  <SCORE.RESTR.norm>
0

>  <SCORE.SYSTEM>
0

>  <SCORE.SYSTEM.CONST>
0

>  <SCORE.SYSTEM.DIHEDRAL>
0

>  <SCORE.SYSTEM.SOLV>
0

>  <SCORE.SYSTEM.norm>
0

>  <SCORE.heavy>
34

>  <SCORE.norm>
-0.491992

>  <RMSD>
9.369

$$$$
ligand
 OpenBabel01301917533D
libRbt.so/2013.1/901 2013/11/27
 34 36  0  0  0  0  0  0  0  0999 V2000
   14.9527   30.3771   35.7958 C   0  0  2  0  0  0  0  0  0  0  0  0
   16.3512   30.1487   35.5950 O   0  0  0  0  0  0  0  0  0  0  0  0
   18.4592   26.4162   35.4296 C   0  0  2  0  0  0  0  0  0  0  0  0
   19.1687   25.1926   35.8270 N   0  0  0  0  0  0  0  0  0  0  0  0
   15.9662   25.3737   33.8440 C   0  0  2  0  0  0  0  0  0  0  0  0
   14.6132   31.8211   35.2665 C   0  0  2  0  0  0  0  0  0  0  0  0
   14.9531   31.9508   33.8404 N   0  0  0  0  0  0  0  0  0  0  0  0
   19.1898   27.6334   36.1033 C   0  0  0  0  0  0  0  0  0  0  0  0
   15.0774   24.1157   33.4933 C   0  0  2  0  0  0  0  0  0  0  0  0
   13.8702   24.1437   34.2351 O   0  0  0  0  0  0  0  0  0  0  0  0
   15.3788   32.8934   36.0991 C   0  0  1  0  0  0  0  0  0  0  0  0
   15.0714   34.2150   35.6184 O   0  0  0  0  0  0  0  0  0  0  0  0
   18.4430   28.9412   35.6627 C   0  0  2  0  0  0  0  0  0  0  0  0
   19.0817   30.1422   36.2726 N   0  0  0  0  0  0  0  0  0  0  0  0
   15.9024   22.8194   33.8415 C   0  0  1  0  0  0  0  0  0  0  0  0
   15.1106   21.6029   33.5696 N   0  0  0  0  0  0  0  0  0  0  0  0
   14.9917   32.7234   37.5868 C   0  0  2  0  0  0  0  0  0  0  0  0
   15.6756   33.7079   38.3686 O   0  0  0  0  0  0  0  0  0  0  0  0
   16.9452   28.8962   36.0917 C   0  0  2  0  0  0  0  0  0  0  0  0
   17.2173   22.8119   32.9994 C   0  0  1  0  0  0  0  0  0  0  0  0
   16.8677   22.7739   31.6196 O   0  0  0  0  0  0  0  0  0  0  0  0
   15.3658   31.2489   38.0473 C   0  0  2  0  0  0  0  0  0  0  0  0
   14.6571   30.2467   37.2207 O   0  0  0  0  0  0  0  0  0  0  0  0
   16.2724   27.6457   35.4630 C   0  0  2  0  0  0  0  0  0  0  0  0
   14.9140   27.6112   35.8958 O   0  0  0  0  0  0  0  0  0  0  0  0
   18.0231   24.1142   33.3096 C   0  0  0  0  0  0  0  0  0  0  0  0
   17.2098   25.3263   33.0503 O   0  0  0  0  0  0  0  0  0  0  0  0
   15.0085   30.9774   39.5369 C   0  0  2  0  0  0  0  0  0  0  0  0
   15.7417   31.8818   40.3704 O   0  0  0  0  0  0  0  0  0  0  0  0
   16.9521   26.3327   35.9238 C   0  0  1  0  0  0  0  0  0  0  0  0
   16.2751   25.2260   35.2670 O   0  0  0  0  0  0  0  0  0  0  0  0
   15.3595   29.5682   39.9609 C   0  0  0  0  0  0  0  0  0  0  0  0
   18.0869   21.5894   33.2965 C   0  0  0  0  0  0  0  0  0  0  0  0
   14.6033   21.1027   34.8708 C   0  0  0  0  0  0  0  0  0  0  0  0
  1  2  1  1  0  0  0
  1  6  1  0  0  0  0
  1 23  1  0  0  0  0
  3  4  1  1  0  0  0
  3  8  1  0  0  0  0
  3 30  1  0  0  0  0
  5  9  1  0  0  0  0
  5 27  1  0  0  0  0
  5 31  1  1  0  0  0
  6  7  1  6  0  0  0
  6 11  1  0  0  0  0
  8 13  1  0  0  0  0
  9 10  1  1  0  0  0
  9 15  1  0  0  0  0
 11 12  1  6  0  0  0
 11 17  1  0  0  0  0
 13 14  1  1  0  0  0
 13 19  1  0  0  0  0
 15 16  1  6  0  0  0
 15 20  1  0  0  0  0
 16 34  1  0  0  0  0
 17 18  1  1  0  0  0
 17 22  1  0  0  0  0
 19  2  1  6  0  0  0
 19 24  1  0  0  0  0
 20 21  1  6  0  0  0
 20 26  1  0  0  0  0
 20 33  1  0  0  0  0
 22 23  1  6  0  0  0
 22 28  1  0  0  0  0
 24 25  1  1  0  0  0
 24 30  1  0  0  0  0
 26 27  1  0  0  0  0
 28 29  1  1  0  0  0
 28 32  1  0  0  0  0
 30 31  1  6  0  0  0
M  END
>  <CHROM.1>
175.93083504,177.72436870,-102.01136042,-60.89613609,-71.49840011,-172.55281077
16.20545882,27.69838004,35.58131779,1.67103342,0.02028475,0.39752209

>  <Name>
ligand

>  <RI>
0

>  <Rbt.Current_Directory>
/home/itssahil/PROJECTS/Mol_Feturizer/New_Systems/rnas/4p3s

>  <Rbt.Executable>
rbdock ($Id: //depot/dev/client3/rdock/2013.1/src/exe/rbdock.cxx#4 $)

>  <Rbt.Library>
libRbt.so (2013.1, Build901 2013/11/27)

>  <Rbt.Parameter_File>
/export/apps/rDock/src/rDock_2013.1_src/data/scripts/dock_solv.prm

>  <Rbt.Receptor>
prm/pocket_docking_6.prm

>  <SCORE>
-15.9777

>  <SCORE.INTER>
-11.0588

>  <SCORE.INTER.CONST>
1

>  <SCORE.INTER.POLAR>
0

>  <SCORE.INTER.ROT>
6

>  <SCORE.INTER.SOLV>
18.0552

>  <SCORE.INTER.VDW>
-20.9909

>  <SCORE.INTER.norm>
-0.325259

>  <SCORE.INTRA>
-4.91889

>  <SCORE.INTRA.DIHEDRAL>
-13.7505

>  <SCORE.INTRA.DIHEDRAL.0>
15.8194

>  <SCORE.INTRA.POLAR>
0

>  <SCORE.INTRA.POLAR.0>
0

>  <SCORE.INTRA.REPUL>
0

>  <SCORE.INTRA.REPUL.0>
0

>  <SCORE.INTRA.SOLV>
0.30609

>  <SCORE.INTRA.SOLV.lig_0>
-71.9159

>  <SCORE.INTRA.VDW>
1.80331

>  <SCORE.INTRA.VDW.0>
-3.53918

>  <SCORE.INTRA.norm>
-0.144673

>  <SCORE.RESTR>
0

>  <SCORE.RESTR.CAVITY>
0

>  <SCORE.RESTR.norm>
0

>  <SCORE.SYSTEM>
0

>  <SCORE.SYSTEM.CONST>
0

>  <SCORE.SYSTEM.DIHEDRAL>
0

>  <SCORE.SYSTEM.SOLV>
0

>  <SCORE.SYSTEM.norm>
0

>  <SCORE.heavy>
34

>  <SCORE.norm>
-0.469932

>  <RMSD>
9.395

$$$$
ligand
 OpenBabel01301917533D
libRbt.so/2013.1/901 2013/11/27
 34 36  0  0  0  0  0  0  0  0999 V2000
   19.1913   28.9203   34.6343 C   0  0  2  0  0  0  0  0  0  0  0  0
   18.1837   28.2824   35.4254 O   0  0  0  0  0  0  0  0  0  0  0  0
   15.6853   24.8858   34.6361 C   0  0  2  0  0  0  0  0  0  0  0  0
   14.6174   24.0299   34.1015 N   0  0  0  0  0  0  0  0  0  0  0  0
   17.8135   24.2407   31.5246 C   0  0  2  0  0  0  0  0  0  0  0  0
   20.2206   29.6021   35.6123 C   0  0  2  0  0  0  0  0  0  0  0  0
   20.8290   28.6077   36.5106 N   0  0  0  0  0  0  0  0  0  0  0  0
   15.0088   26.1514   35.2762 C   0  0  0  0  0  0  0  0  0  0  0  0
   17.8021   22.7573   30.9818 C   0  0  2  0  0  0  0  0  0  0  0  0
   16.4769   22.2561   30.9469 O   0  0  0  0  0  0  0  0  0  0  0  0
   19.5158   30.7154   36.4447 C   0  0  1  0  0  0  0  0  0  0  0  0
   20.4531   31.3413   37.3403 O   0  0  0  0  0  0  0  0  0  0  0  0
   16.1488   27.0555   35.8639 C   0  0  2  0  0  0  0  0  0  0  0  0
   15.5776   28.2843   36.4853 N   0  0  0  0  0  0  0  0  0  0  0  0
   18.6935   21.8778   31.9380 C   0  0  1  0  0  0  0  0  0  0  0  0
   18.6953   20.4660   31.5048 N   0  0  0  0  0  0  0  0  0  0  0  0
   18.8942   31.7376   35.4645 C   0  0  2  0  0  0  0  0  0  0  0  0
   18.2514   32.7765   36.2098 O   0  0  0  0  0  0  0  0  0  0  0  0
   17.1534   27.4767   34.7491 C   0  0  2  0  0  0  0  0  0  0  0  0
   20.1476   22.4468   31.9437 C   0  0  1  0  0  0  0  0  0  0  0  0
   20.6704   22.3584   30.6223 O   0  0  0  0  0  0  0  0  0  0  0  0
   17.8687   30.9787   34.5165 C   0  0  2  0  0  0  0  0  0  0  0  0
   18.5502   29.9025   33.7632 O   0  0  0  0  0  0  0  0  0  0  0  0
   17.7512   26.2020   34.0938 C   0  0  2  0  0  0  0  0  0  0  0  0
   18.6411   26.6142   33.0585 O   0  0  0  0  0  0  0  0  0  0  0  0
   20.1036   23.9403   32.4010 C   0  0  0  0  0  0  0  0  0  0  0  0
   19.2018   24.7418   31.5393 O   0  0  0  0  0  0  0  0  0  0  0  0
   17.1907   31.9267   33.4861 C   0  0  2  0  0  0  0  0  0  0  0  0
   16.2052   31.1948   32.7489 O   0  0  0  0  0  0  0  0  0  0  0  0
   16.6550   25.3148   33.4538 C   0  0  1  0  0  0  0  0  0  0  0  0
   17.3034   24.1403   32.8928 O   0  0  0  0  0  0  0  0  0  0  0  0
   18.1820   32.4966   32.4955 C   0  0  0  0  0  0  0  0  0  0  0  0
   21.0740   21.6558   32.8684 C   0  0  0  0  0  0  0  0  0  0  0  0
   17.9514   19.6871   32.5249 C   0  0  0  0  0  0  0  0  0  0  0  0
  1  2  1  1  0  0  0
  1  6  1  0  0  0  0
  1 23  1  0  0  0  0
  3  4  1  6  0  0  0
  3  8  1  0  0  0  0
  3 30  1  0  0  0  0
  5  9  1  0  0  0  0
  5 27  1  0  0  0  0
  5 31  1  1  0  0  0
  6  7  1  1  0  0  0
  6 11  1  0  0  0  0
  8 13  1  0  0  0  0
  9 10  1  1  0  0  0
  9 15  1  0  0  0  0
 11 12  1  1  0  0  0
 11 17  1  0  0  0  0
 13 14  1  6  0  0  0
 13 19  1  0  0  0  0
 15 16  1  6  0  0  0
 15 20  1  0  0  0  0
 16 34  1  0  0  0  0
 17 18  1  1  0  0  0
 17 22  1  0  0  0  0
 19  2  1  1  0  0  0
 19 24  1  0  0  0  0
 20 21  1  6  0  0  0
 20 26  1  0  0  0  0
 20 33  1  0  0  0  0
 22 23  1  6  0  0  0
 22 28  1  0  0  0  0
 24 25  1  6  0  0  0
 24 30  1  0  0  0  0
 26 27  1  0  0  0  0
 28 29  1  6  0  0  0
 28 32  1  0  0  0  0
 30 31  1  1  0  0  0
M  END
>  <CHROM.1>
-175.20852599,-174.38324112,-111.03236160,-175.21444706,157.36164021,-153.87152608
18.15343960,26.63193593,33.74431222,-1.58044354,-0.12254361,-2.78878487

>  <Name>
ligand

>  <RI>
0

>  <Rbt.Current_Directory>
/home/itssahil/PROJECTS/Mol_Feturizer/New_Systems/rnas/4p3s

>  <Rbt.Executable>
rbdock ($Id: //depot/dev/client3/rdock/2013.1/src/exe/rbdock.cxx#4 $)

>  <Rbt.Library>
libRbt.so (2013.1, Build901 2013/11/27)

>  <Rbt.Parameter_File>
/export/apps/rDock/src/rDock_2013.1_src/data/scripts/dock_solv.prm

>  <Rbt.Receptor>
prm/pocket_docking_7.prm

>  <SCORE>
-17.067

>  <SCORE.INTER>
-12.6832

>  <SCORE.INTER.CONST>
1

>  <SCORE.INTER.POLAR>
0

>  <SCORE.INTER.ROT>
6

>  <SCORE.INTER.SOLV>
16.5478

>  <SCORE.INTER.VDW>
-21.5714

>  <SCORE.INTER.norm>
-0.373035

>  <SCORE.INTRA>
-4.38385

>  <SCORE.INTRA.DIHEDRAL>
-9.14849

>  <SCORE.INTRA.DIHEDRAL.0>
15.8194

>  <SCORE.INTRA.POLAR>
0

>  <SCORE.INTRA.POLAR.0>
0

>  <SCORE.INTRA.REPUL>
0

>  <SCORE.INTRA.REPUL.0>
0

>  <SCORE.INTRA.SOLV>
-1.87002

>  <SCORE.INTRA.SOLV.lig_0>
-71.9159

>  <SCORE.INTRA.VDW>
1.1254

>  <SCORE.INTRA.VDW.0>
-3.53918

>  <SCORE.INTRA.norm>
-0.128937

>  <SCORE.RESTR>
0

>  <SCORE.RESTR.CAVITY>
0

>  <SCORE.RESTR.norm>
0

>  <SCORE.SYSTEM>
0

>  <SCORE.SYSTEM.CONST>
0

>  <SCORE.SYSTEM.DIHEDRAL>
0

>  <SCORE.SYSTEM.SOLV>
0

>  <SCORE.SYSTEM.norm>
0

>  <SCORE.heavy>
34

>  <SCORE.norm>
-0.501972

>  <RMSD>
9.395

$$$$
ligand
 OpenBabel01301917533D
libRbt.so/2013.1/901 2013/11/27
 34 36  0  0  0  0  0  0  0  0999 V2000
   17.8912   29.9251   35.7720 C   0  0  2  0  0  0  0  0  0  0  0  0
   18.2207   28.5941   35.3623 O   0  0  0  0  0  0  0  0  0  0  0  0
   15.7207   25.1581   34.7737 C   0  0  2  0  0  0  0  0  0  0  0  0
   14.6415   24.2782   34.3049 N   0  0  0  0  0  0  0  0  0  0  0  0
   17.7267   24.4108   31.6089 C   0  0  2  0  0  0  0  0  0  0  0  0
   17.8557   30.8363   34.4878 C   0  0  2  0  0  0  0  0  0  0  0  0
   16.8654   30.3394   33.5190 N   0  0  0  0  0  0  0  0  0  0  0  0
   15.0574   26.4410   35.3927 C   0  0  0  0  0  0  0  0  0  0  0  0
   17.6797   22.9092   31.1206 C   0  0  2  0  0  0  0  0  0  0  0  0
   16.3515   22.4173   31.1691 O   0  0  0  0  0  0  0  0  0  0  0  0
   19.2670   30.8936   33.8292 C   0  0  1  0  0  0  0  0  0  0  0  0
   19.2390   31.7254   32.6546 O   0  0  0  0  0  0  0  0  0  0  0  0
   16.2101   27.3712   35.9106 C   0  0  2  0  0  0  0  0  0  0  0  0
   15.6515   28.6173   36.5086 N   0  0  0  0  0  0  0  0  0  0  0  0
   18.6124   22.0573   32.0621 C   0  0  1  0  0  0  0  0  0  0  0  0
   18.5844   20.6311   31.6799 N   0  0  0  0  0  0  0  0  0  0  0  0
   20.2736   31.4218   34.8780 C   0  0  2  0  0  0  0  0  0  0  0  0
   21.5758   31.4938   34.2890 O   0  0  0  0  0  0  0  0  0  0  0  0
   17.1739   27.7597   34.7488 C   0  0  2  0  0  0  0  0  0  0  0  0
   20.0683   22.6150   31.9756 C   0  0  1  0  0  0  0  0  0  0  0  0
   20.5242   22.4761   30.6339 O   0  0  0  0  0  0  0  0  0  0  0  0
   20.2551   30.4529   36.1378 C   0  0  2  0  0  0  0  0  0  0  0  0
   18.8986   30.3841   36.7255 O   0  0  0  0  0  0  0  0  0  0  0  0
   17.7582   26.4668   34.1177 C   0  0  2  0  0  0  0  0  0  0  0  0
   18.6102   26.8483   33.0395 O   0  0  0  0  0  0  0  0  0  0  0  0
   20.0558   24.1240   32.3810 C   0  0  0  0  0  0  0  0  0  0  0  0
   19.1170   24.9015   31.5371 O   0  0  0  0  0  0  0  0  0  0  0  0
   21.2373   30.9052   37.2563 C   0  0  2  0  0  0  0  0  0  0  0  0
   21.2097   29.9503   38.3228 O   0  0  0  0  0  0  0  0  0  0  0  0
   16.6474   25.5518   33.5455 C   0  0  1  0  0  0  0  0  0  0  0  0
   17.2848   24.3625   33.0034 O   0  0  0  0  0  0  0  0  0  0  0  0
   20.8655   32.2539   37.8320 C   0  0  0  0  0  0  0  0  0  0  0  0
   21.0349   21.8501   32.8808 C   0  0  0  0  0  0  0  0  0  0  0  0
   17.8263   19.9048   32.7280 C   0  0  0  0  0  0  0  0  0  0  0  0
  1  2  1  6  0  0  0
  1  6  1  0  0  0  0
  1 23  1  0  0  0  0
  3  4  1  6  0  0  0
  3  8  1  0  0  0  0
  3 30  1  0  0  0  0
  5  9  1  0  0  0  0
  5 27  1  0  0  0  0
  5 31  1  1  0  0  0
  6  7  1  6  0  0  0
  6 11  1  0  0  0  0
  8 13  1  0  0  0  0
  9 10  1  1  0  0  0
  9 15  1  0  0  0  0
 11 12  1  6  0  0  0
 11 17  1  0  0  0  0
 13 14  1  6  0  0  0
 13 19  1  0  0  0  0
 15 16  1  6  0  0  0
 15 20  1  0  0  0  0
 16 34  1  0  0  0  0
 17 18  1  6  0  0  0
 17 22  1  0  0  0  0
 19  2  1  1  0  0  0
 19 24  1  0  0  0  0
 20 21  1  6  0  0  0
 20 26  1  0  0  0  0
 20 33  1  0  0  0  0
 22 23  1  1  0  0  0
 22 28  1  0  0  0  0
 24 25  1  6  0  0  0
 24 30  1  0  0  0  0
 26 27  1  0  0  0  0
 28 29  1  1  0  0  0
 28 32  1  0  0  0  0
 30 31  1  1  0  0  0
M  END
>  <CHROM.1>
-77.69508719,-72.44118304,-108.14742286,-177.21839209,156.30404772,-152.65387973
18.44972132,26.77722608,33.99474233,1.42877818,0.24909848,0.45822908

>  <Name>
ligand

>  <RI>
0

>  <Rbt.Current_Directory>
/home/itssahil/PROJECTS/Mol_Feturizer/New_Systems/rnas/4p3s

>  <Rbt.Executable>
rbdock ($Id: //depot/dev/client3/rdock/2013.1/src/exe/rbdock.cxx#4 $)

>  <Rbt.Library>
libRbt.so (2013.1, Build901 2013/11/27)

>  <Rbt.Parameter_File>
/export/apps/rDock/src/rDock_2013.1_src/data/scripts/dock_solv.prm

>  <Rbt.Receptor>
prm/pocket_docking_6.prm

>  <SCORE>
-11.4621

>  <SCORE.INTER>
-10.7942

>  <SCORE.INTER.CONST>
1

>  <SCORE.INTER.POLAR>
0

>  <SCORE.INTER.ROT>
6

>  <SCORE.INTER.SOLV>
17.2605

>  <SCORE.INTER.VDW>
-20.5496

>  <SCORE.INTER.norm>
-0.317475

>  <SCORE.INTRA>
-0.667933

>  <SCORE.INTRA.DIHEDRAL>
-6.94115

>  <SCORE.INTRA.DIHEDRAL.0>
15.8194

>  <SCORE.INTRA.POLAR>
0

>  <SCORE.INTRA.POLAR.0>
0

>  <SCORE.INTRA.REPUL>
0

>  <SCORE.INTRA.REPUL.0>
0

>  <SCORE.INTRA.SOLV>
2.07222

>  <SCORE.INTRA.SOLV.lig_0>
-71.9159

>  <SCORE.INTRA.VDW>
1.76653

>  <SCORE.INTRA.VDW.0>
-3.53918

>  <SCORE.INTRA.norm>
-0.0196451

>  <SCORE.RESTR>
0

>  <SCORE.RESTR.CAVITY>
0

>  <SCORE.RESTR.norm>
0

>  <SCORE.SYSTEM>
0

>  <SCORE.SYSTEM.CONST>
0

>  <SCORE.SYSTEM.DIHEDRAL>
0

>  <SCORE.SYSTEM.SOLV>
0

>  <SCORE.SYSTEM.norm>
0

>  <SCORE.heavy>
34

>  <SCORE.norm>
-0.33712

>  <RMSD>
9.396

$$$$
ligand
 OpenBabel01301917533D
libRbt.so/2013.1/901 2013/11/27
 34 36  0  0  0  0  0  0  0  0999 V2000
   19.0452   31.1100   32.6354 C   0  0  2  0  0  0  0  0  0  0  0  0
   19.3641   29.7296   32.8377 O   0  0  0  0  0  0  0  0  0  0  0  0
   17.3936   26.5145   34.8827 C   0  0  2  0  0  0  0  0  0  0  0  0
   16.3567   25.5948   35.3703 N   0  0  0  0  0  0  0  0  0  0  0  0
   18.8310   24.3094   34.0437 C   0  0  2  0  0  0  0  0  0  0  0  0
   19.1880   31.4237   31.0986 C   0  0  2  0  0  0  0  0  0  0  0  0
   18.2914   30.5697   30.3030 N   0  0  0  0  0  0  0  0  0  0  0  0
   16.9290   27.9785   35.2141 C   0  0  0  0  0  0  0  0  0  0  0  0
   20.1044   23.7818   33.2720 C   0  0  2  0  0  0  0  0  0  0  0  0
   20.8449   24.8684   32.7434 O   0  0  0  0  0  0  0  0  0  0  0  0
   20.6645   31.2210   30.6427 C   0  0  1  0  0  0  0  0  0  0  0  0
   20.7995   31.5065   29.2383 O   0  0  0  0  0  0  0  0  0  0  0  0
   18.0460   28.9588   34.7103 C   0  0  2  0  0  0  0  0  0  0  0  0
   17.6678   30.3739   34.9877 N   0  0  0  0  0  0  0  0  0  0  0  0
   19.6171   22.8361   32.1098 C   0  0  1  0  0  0  0  0  0  0  0  0
   20.7626   22.3357   31.3234 N   0  0  0  0  0  0  0  0  0  0  0  0
   21.5697   32.1361   31.5002 C   0  0  2  0  0  0  0  0  0  0  0  0
   22.9308   31.9741   31.0888 O   0  0  0  0  0  0  0  0  0  0  0  0
   18.2806   28.7925   33.1784 C   0  0  2  0  0  0  0  0  0  0  0  0
   18.8178   21.6442   32.7253 C   0  0  1  0  0  0  0  0  0  0  0  0
   19.6909   20.9091   33.5767 O   0  0  0  0  0  0  0  0  0  0  0  0
   21.3736   31.7593   33.0317 C   0  0  2  0  0  0  0  0  0  0  0  0
   19.9590   31.9233   33.4343 O   0  0  0  0  0  0  0  0  0  0  0  0
   18.6721   27.3197   32.8798 C   0  0  2  0  0  0  0  0  0  0  0  0
   18.8499   27.1875   31.4711 O   0  0  0  0  0  0  0  0  0  0  0  0
   17.6203   22.2128   33.5524 C   0  0  0  0  0  0  0  0  0  0  0  0
   18.0855   23.1602   34.5936 O   0  0  0  0  0  0  0  0  0  0  0  0
   22.2439   32.6330   33.9802 C   0  0  2  0  0  0  0  0  0  0  0  0
   23.5392   32.8150   33.3978 O   0  0  0  0  0  0  0  0  0  0  0  0
   17.5638   26.3293   33.3146 C   0  0  1  0  0  0  0  0  0  0  0  0
   18.0290   24.9830   33.0215 O   0  0  0  0  0  0  0  0  0  0  0  0
   22.4318   31.9906   35.3369 C   0  0  0  0  0  0  0  0  0  0  0  0
   18.2915   20.6873   31.6547 C   0  0  0  0  0  0  0  0  0  0  0  0
   20.4912   22.6434   29.8978 C   0  0  0  0  0  0  0  0  0  0  0  0
  1  2  1  6  0  0  0
  1  6  1  0  0  0  0
  1 23  1  0  0  0  0
  3  4  1  6  0  0  0
  3  8  1  0  0  0  0
  3 30  1  0  0  0  0
  5  9  1  0  0  0  0
  5 27  1  0  0  0  0
  5 31  1  6  0  0  0
  6  7  1  6  0  0  0
  6 11  1  0  0  0  0
  8 13  1  0  0  0  0
  9 10  1  6  0  0  0
  9 15  1  0  0  0  0
 11 12  1  6  0  0  0
 11 17  1  0  0  0  0
 13 14  1  6  0  0  0
 13 19  1  0  0  0  0
 15 16  1  1  0  0  0
 15 20  1  0  0  0  0
 16 34  1  0  0  0  0
 17 18  1  6  0  0  0
 17 22  1  0  0  0  0
 19  2  1  1  0  0  0
 19 24  1  0  0  0  0
 20 21  1  1  0  0  0
 20 26  1  0  0  0  0
 20 33  1  0  0  0  0
 22 23  1  1  0  0  0
 22 28  1  0  0  0  0
 24 25  1  6  0  0  0
 24 30  1  0  0  0  0
 26 27  1  0  0  0  0
 28 29  1  6  0  0  0
 28 32  1  0  0  0  0
 30 31  1  1  0  0  0
M  END
>  <CHROM.1>
-108.90088822,-81.26747162,-126.81730143,-40.69015655,-28.32171543,-129.71134432
19.51954224,27.47376056,32.83583729,1.23042162,0.80475759,0.20581838

>  <Name>
ligand

>  <RI>
0

>  <Rbt.Current_Directory>
/home/itssahil/PROJECTS/Mol_Feturizer/New_Systems/rnas/4p3s

>  <Rbt.Executable>
rbdock ($Id: //depot/dev/client3/rdock/2013.1/src/exe/rbdock.cxx#4 $)

>  <Rbt.Library>
libRbt.so (2013.1, Build901 2013/11/27)

>  <Rbt.Parameter_File>
/export/apps/rDock/src/rDock_2013.1_src/data/scripts/dock_solv.prm

>  <Rbt.Receptor>
prm/blind_docking_60.prm

>  <SCORE>
21.5027

>  <SCORE.INTER>
3.95163

>  <SCORE.INTER.CONST>
1

>  <SCORE.INTER.POLAR>
0

>  <SCORE.INTER.ROT>
6

>  <SCORE.INTER.SOLV>
20.4338

>  <SCORE.INTER.VDW>
-11.7768

>  <SCORE.INTER.norm>
0.116224

>  <SCORE.INTRA>
5.97279

>  <SCORE.INTRA.DIHEDRAL>
5.89595

>  <SCORE.INTRA.DIHEDRAL.0>
15.8194

>  <SCORE.INTRA.POLAR>
0

>  <SCORE.INTRA.POLAR.0>
0

>  <SCORE.INTRA.REPUL>
0

>  <SCORE.INTRA.REPUL.0>
0

>  <SCORE.INTRA.SOLV>
2.51249

>  <SCORE.INTRA.SOLV.lig_0>
-71.9159

>  <SCORE.INTRA.VDW>
1.76857

>  <SCORE.INTRA.VDW.0>
-3.53918

>  <SCORE.INTRA.norm>
0.17567

>  <SCORE.RESTR>
11.5782

>  <SCORE.RESTR.CAVITY>
11.5782

>  <SCORE.RESTR.norm>
0.340537

>  <SCORE.SYSTEM>
0

>  <SCORE.SYSTEM.CONST>
0

>  <SCORE.SYSTEM.DIHEDRAL>
0

>  <SCORE.SYSTEM.SOLV>
0

>  <SCORE.SYSTEM.norm>
0

>  <SCORE.heavy>
34

>  <SCORE.norm>
0.632431

>  <RMSD>
9.401

$$$$
ligand
 OpenBabel01301917533D
libRbt.so/2013.1/901 2013/11/27
 34 36  0  0  0  0  0  0  0  0999 V2000
   18.5107   29.4998   34.6311 C   0  0  2  0  0  0  0  0  0  0  0  0
   17.7972   28.5792   35.4628 O   0  0  0  0  0  0  0  0  0  0  0  0
   15.6687   24.9127   34.8082 C   0  0  2  0  0  0  0  0  0  0  0  0
   14.6831   23.9352   34.3270 N   0  0  0  0  0  0  0  0  0  0  0  0
   17.7770   24.5007   31.6330 C   0  0  2  0  0  0  0  0  0  0  0  0
   19.5842   30.2311   35.5218 C   0  0  2  0  0  0  0  0  0  0  0  0
   20.5126   29.2624   36.1264 N   0  0  0  0  0  0  0  0  0  0  0  0
   14.8810   26.1016   35.4680 C   0  0  0  0  0  0  0  0  0  0  0  0
   17.8015   23.0393   31.0338 C   0  0  2  0  0  0  0  0  0  0  0  0
   16.4907   22.5020   30.9929 O   0  0  0  0  0  0  0  0  0  0  0  0
   18.8817   31.0659   36.6348 C   0  0  1  0  0  0  0  0  0  0  0  0
   19.8594   31.7361   37.4516 O   0  0  0  0  0  0  0  0  0  0  0  0
   15.9351   27.1357   35.9987 C   0  0  2  0  0  0  0  0  0  0  0  0
   15.2552   28.2996   36.6354 N   0  0  0  0  0  0  0  0  0  0  0  0
   18.7280   22.1500   31.9464 C   0  0  1  0  0  0  0  0  0  0  0  0
   18.7650   20.7563   31.4593 N   0  0  0  0  0  0  0  0  0  0  0  0
   17.9197   32.0699   35.9576 C   0  0  2  0  0  0  0  0  0  0  0  0
   17.2724   32.8561   36.9631 O   0  0  0  0  0  0  0  0  0  0  0  0
   16.8370   27.6541   34.8380 C   0  0  2  0  0  0  0  0  0  0  0  0
   20.1655   22.7598   31.9594 C   0  0  1  0  0  0  0  0  0  0  0  0
   20.6758   22.7369   30.6304 O   0  0  0  0  0  0  0  0  0  0  0  0
   16.8686   31.2604   35.0825 C   0  0  2  0  0  0  0  0  0  0  0  0
   17.5579   30.4467   34.0565 O   0  0  0  0  0  0  0  0  0  0  0  0
   17.5471   26.4473   34.1665 C   0  0  2  0  0  0  0  0  0  0  0  0
   18.3396   26.9447   33.0904 O   0  0  0  0  0  0  0  0  0  0  0  0
   20.0844   24.2329   32.4741 C   0  0  0  0  0  0  0  0  0  0  0  0
   19.1507   25.0405   31.6530 O   0  0  0  0  0  0  0  0  0  0  0  0
   15.8545   32.1882   34.3536 C   0  0  2  0  0  0  0  0  0  0  0  0
   16.5313   33.3686   33.9077 O   0  0  0  0  0  0  0  0  0  0  0  0
   16.5323   25.4341   33.5815 C   0  0  1  0  0  0  0  0  0  0  0  0
   17.2853   24.3336   33.0013 O   0  0  0  0  0  0  0  0  0  0  0  0
   14.7207   32.6177   35.2582 C   0  0  0  0  0  0  0  0  0  0  0  0
   21.1241   21.9611   32.8436 C   0  0  0  0  0  0  0  0  0  0  0  0
   18.0342   19.9218   32.4443 C   0  0  0  0  0  0  0  0  0  0  0  0
  1  2  1  1  0  0  0
  1  6  1  0  0  0  0
  1 23  1  0  0  0  0
  3  4  1  6  0  0  0
  3  8  1  0  0  0  0
  3 30  1  0  0  0  0
  5  9  1  0  0  0  0
  5 27  1  0  0  0  0
  5 31  1  1  0  0  0
  6  7  1  1  0  0  0
  6 11  1  0  0  0  0
  8 13  1  0  0  0  0
  9 10  1  1  0  0  0
  9 15  1  0  0  0  0
 11 12  1  6  0  0  0
 11 17  1  0  0  0  0
 13 14  1  6  0  0  0
 13 19  1  0  0  0  0
 15 16  1  6  0  0  0
 15 20  1  0  0  0  0
 16 34  1  0  0  0  0
 17 18  1  1  0  0  0
 17 22  1  0  0  0  0
 19  2  1  1  0  0  0
 19 24  1  0  0  0  0
 20 21  1  6  0  0  0
 20 26  1  0  0  0  0
 20 33  1  0  0  0  0
 22 23  1  6  0  0  0
 22 28  1  0  0  0  0
 24 25  1  6  0  0  0
 24 30  1  0  0  0  0
 26 27  1  0  0  0  0
 28 29  1  1  0  0  0
 28 32  1  0  0  0  0
 30 31  1  1  0  0  0
M  END
>  <CHROM.1>
-173.05939920,-162.61843699,-110.05595500,37.84635520,160.21766206,-149.86146811
17.76772563,26.96069604,33.99665484,-1.69725626,-0.14490796,-2.76853512

>  <Name>
ligand

>  <RI>
0

>  <Rbt.Current_Directory>
/home/itssahil/PROJECTS/Mol_Feturizer/New_Systems/rnas/4p3s

>  <Rbt.Executable>
rbdock ($Id: //depot/dev/client3/rdock/2013.1/src/exe/rbdock.cxx#4 $)

>  <Rbt.Library>
libRbt.so (2013.1, Build901 2013/11/27)

>  <Rbt.Parameter_File>
/export/apps/rDock/src/rDock_2013.1_src/data/scripts/dock_solv.prm

>  <Rbt.Receptor>
prm/pocket_docking_5.prm

>  <SCORE>
-18.3215

>  <SCORE.INTER>
-15.1216

>  <SCORE.INTER.CONST>
1

>  <SCORE.INTER.POLAR>
0

>  <SCORE.INTER.ROT>
6

>  <SCORE.INTER.SOLV>
15.7312

>  <SCORE.INTER.VDW>
-22.9248

>  <SCORE.INTER.norm>
-0.444754

>  <SCORE.INTRA>
-3.19992

>  <SCORE.INTRA.DIHEDRAL>
-6.04298

>  <SCORE.INTRA.DIHEDRAL.0>
15.8194

>  <SCORE.INTRA.POLAR>
0

>  <SCORE.INTRA.POLAR.0>
0

>  <SCORE.INTRA.REPUL>
0

>  <SCORE.INTRA.REPUL.0>
0

>  <SCORE.INTRA.SOLV>
-0.883963

>  <SCORE.INTRA.SOLV.lig_0>
-71.9159

>  <SCORE.INTRA.VDW>
0.263553

>  <SCORE.INTRA.VDW.0>
-3.53918

>  <SCORE.INTRA.norm>
-0.0941152

>  <SCORE.RESTR>
0

>  <SCORE.RESTR.CAVITY>
0

>  <SCORE.RESTR.norm>
0

>  <SCORE.SYSTEM>
0

>  <SCORE.SYSTEM.CONST>
0

>  <SCORE.SYSTEM.DIHEDRAL>
0

>  <SCORE.SYSTEM.SOLV>
0

>  <SCORE.SYSTEM.norm>
0

>  <SCORE.heavy>
34

>  <SCORE.norm>
-0.538869

>  <RMSD>
9.401

$$$$
ligand
 OpenBabel01301917533D
libRbt.so/2013.1/901 2013/11/27
 34 36  0  0  0  0  0  0  0  0999 V2000
   15.4087   25.7681   35.5475 C   0  0  2  0  0  0  0  0  0  0  0  0
   15.0320   25.7433   34.1671 O   0  0  0  0  0  0  0  0  0  0  0  0
   16.3684   21.7486   33.3556 C   0  0  2  0  0  0  0  0  0  0  0  0
   16.5488   20.4372   32.7183 N   0  0  0  0  0  0  0  0  0  0  0  0
   19.2465   22.9494   33.4122 C   0  0  2  0  0  0  0  0  0  0  0  0
   15.3006   27.2548   36.0562 C   0  0  2  0  0  0  0  0  0  0  0  0
   13.9313   27.7681   35.8904 N   0  0  0  0  0  0  0  0  0  0  0  0
   14.8272   21.9694   33.5681 C   0  0  0  0  0  0  0  0  0  0  0  0
   20.7210   22.7305   32.8893 C   0  0  2  0  0  0  0  0  0  0  0  0
   21.0257   23.6666   31.8698 O   0  0  0  0  0  0  0  0  0  0  0  0
   16.3089   28.1613   35.2877 C   0  0  1  0  0  0  0  0  0  0  0  0
   16.2133   29.5215   35.7495 O   0  0  0  0  0  0  0  0  0  0  0  0
   14.6368   23.3617   34.2664 C   0  0  2  0  0  0  0  0  0  0  0  0
   13.1905   23.6418   34.4949 N   0  0  0  0  0  0  0  0  0  0  0  0
   20.8312   21.2609   32.3321 C   0  0  1  0  0  0  0  0  0  0  0  0
   22.1812   21.0027   31.7922 N   0  0  0  0  0  0  0  0  0  0  0  0
   17.7315   27.5892   35.4901 C   0  0  2  0  0  0  0  0  0  0  0  0
   18.6756   28.4152   34.8014 O   0  0  0  0  0  0  0  0  0  0  0  0
   15.2388   24.5060   33.3961 C   0  0  2  0  0  0  0  0  0  0  0  0
   20.5035   20.2555   33.4810 C   0  0  1  0  0  0  0  0  0  0  0  0
   21.4669   20.4252   34.5156 O   0  0  0  0  0  0  0  0  0  0  0  0
   17.7625   26.0938   34.9526 C   0  0  2  0  0  0  0  0  0  0  0  0
   16.7728   25.2592   35.6695 O   0  0  0  0  0  0  0  0  0  0  0  0
   16.7453   24.2205   33.1502 C   0  0  2  0  0  0  0  0  0  0  0  0
   17.2633   25.2635   32.3271 O   0  0  0  0  0  0  0  0  0  0  0  0
   19.0729   20.5635   34.0288 C   0  0  0  0  0  0  0  0  0  0  0  0
   18.9596   21.9712   34.4798 O   0  0  0  0  0  0  0  0  0  0  0  0
   19.1581   25.4264   35.1174 C   0  0  2  0  0  0  0  0  0  0  0  0
   19.7104   25.7949   36.3860 O   0  0  0  0  0  0  0  0  0  0  0  0
   16.9642   22.8776   32.4107 C   0  0  1  0  0  0  0  0  0  0  0  0
   18.3967   22.6854   32.2503 O   0  0  0  0  0  0  0  0  0  0  0  0
   20.1306   25.8631   34.0440 C   0  0  0  0  0  0  0  0  0  0  0  0
   20.5697   18.8012   33.0125 C   0  0  0  0  0  0  0  0  0  0  0  0
   22.0773   21.0119   30.3123 C   0  0  0  0  0  0  0  0  0  0  0  0
  1  2  1  6  0  0  0
  1  6  1  0  0  0  0
  1 23  1  0  0  0  0
  3  4  1  6  0  0  0
  3  8  1  0  0  0  0
  3 30  1  0  0  0  0
  5  9  1  0  0  0  0
  5 27  1  0  0  0  0
  5 31  1  6  0  0  0
  6  7  1  6  0  0  0
  6 11  1  0  0  0  0
  8 13  1  0  0  0  0
  9 10  1  6  0  0  0
  9 15  1  0  0  0  0
 11 12  1  1  0  0  0
 11 17  1  0  0  0  0
 13 14  1  6  0  0  0
 13 19  1  0  0  0  0
 15 16  1  1  0  0  0
 15 20  1  0  0  0  0
 16 34  1  0  0  0  0
 17 18  1  6  0  0  0
 17 22  1  0  0  0  0
 19  2  1  1  0  0  0
 19 24  1  0  0  0  0
 20 21  1  1  0  0  0
 20 26  1  0  0  0  0
 20 33  1  0  0  0  0
 22 23  1  1  0  0  0
 22 28  1  0  0  0  0
 24 25  1  6  0  0  0
 24 30  1  0  0  0  0
 26 27  1  0  0  0  0
 28 29  1  1  0  0  0
 28 32  1  0  0  0  0
 30 31  1  1  0  0  0
M  END
>  <CHROM.1>
170.96861487,48.86424969,-105.31172590,40.63244443,-70.14048049,-176.90660556
17.95456993,23.96391579,33.91754915,2.18405189,0.10178138,0.33436186

>  <Name>
ligand

>  <RI>
0

>  <Rbt.Current_Directory>
/home/itssahil/PROJECTS/Mol_Feturizer/New_Systems/rnas/4p3s

>  <Rbt.Executable>
rbdock ($Id: //depot/dev/client3/rdock/2013.1/src/exe/rbdock.cxx#4 $)

>  <Rbt.Library>
libRbt.so (2013.1, Build901 2013/11/27)

>  <Rbt.Parameter_File>
/export/apps/rDock/src/rDock_2013.1_src/data/scripts/dock_solv.prm

>  <Rbt.Receptor>
prm/blind_docking_60.prm

>  <SCORE>
2.92111

>  <SCORE.INTER>
-1.90727

>  <SCORE.INTER.CONST>
1

>  <SCORE.INTER.POLAR>
0

>  <SCORE.INTER.ROT>
6

>  <SCORE.INTER.SOLV>
27.2947

>  <SCORE.INTER.VDW>
-17.9697

>  <SCORE.INTER.norm>
-0.0560961

>  <SCORE.INTRA>
-0.704443

>  <SCORE.INTRA.DIHEDRAL>
-11.9101

>  <SCORE.INTRA.DIHEDRAL.0>
15.8194

>  <SCORE.INTRA.POLAR>
0

>  <SCORE.INTRA.POLAR.0>
0

>  <SCORE.INTRA.REPUL>
0.0250071

>  <SCORE.INTRA.REPUL.0>
0

>  <SCORE.INTRA.SOLV>
2.78436

>  <SCORE.INTRA.SOLV.lig_0>
-71.9159

>  <SCORE.INTRA.VDW>
3.73338

>  <SCORE.INTRA.VDW.0>
-3.53918

>  <SCORE.INTRA.norm>
-0.0207189

>  <SCORE.RESTR>
5.53282

>  <SCORE.RESTR.CAVITY>
5.53282

>  <SCORE.RESTR.norm>
0.16273

>  <SCORE.SYSTEM>
0

>  <SCORE.SYSTEM.CONST>
0

>  <SCORE.SYSTEM.DIHEDRAL>
0

>  <SCORE.SYSTEM.SOLV>
0

>  <SCORE.SYSTEM.norm>
0

>  <SCORE.heavy>
34

>  <SCORE.norm>
0.0859149

>  <RMSD>
9.421

$$$$
ligand
 OpenBabel01301917533D
libRbt.so/2013.1/901 2013/11/27
 34 36  0  0  0  0  0  0  0  0999 V2000
   18.1700   30.0396   34.3521 C   0  0  2  0  0  0  0  0  0  0  0  0
   17.7021   29.0085   35.2274 O   0  0  0  0  0  0  0  0  0  0  0  0
   15.7324   25.2108   34.9112 C   0  0  2  0  0  0  0  0  0  0  0  0
   14.7836   24.1554   34.5309 N   0  0  0  0  0  0  0  0  0  0  0  0
   17.7846   24.6361   31.7267 C   0  0  2  0  0  0  0  0  0  0  0  0
   19.4445   30.6939   35.0063 C   0  0  2  0  0  0  0  0  0  0  0  0
   20.4981   29.6893   35.2223 N   0  0  0  0  0  0  0  0  0  0  0  0
   14.9037   26.4122   35.4937 C   0  0  0  0  0  0  0  0  0  0  0  0
   17.6957   23.1504   31.1974 C   0  0  2  0  0  0  0  0  0  0  0  0
   16.3539   22.6954   31.2308 O   0  0  0  0  0  0  0  0  0  0  0  0
   19.0674   31.3733   36.3574 C   0  0  1  0  0  0  0  0  0  0  0  0
   20.2298   31.9726   36.9590 O   0  0  0  0  0  0  0  0  0  0  0  0
   15.9192   27.5309   35.9174 C   0  0  2  0  0  0  0  0  0  0  0  0
   15.1989   28.7103   36.4764 N   0  0  0  0  0  0  0  0  0  0  0  0
   18.6018   22.2468   32.1165 C   0  0  1  0  0  0  0  0  0  0  0  0
   18.5340   20.8329   31.6953 N   0  0  0  0  0  0  0  0  0  0  0  0
   17.9623   32.4205   36.0850 C   0  0  2  0  0  0  0  0  0  0  0  0
   17.6096   33.0656   37.3127 O   0  0  0  0  0  0  0  0  0  0  0  0
   16.7736   27.9950   34.6993 C   0  0  2  0  0  0  0  0  0  0  0  0
   20.0732   22.7649   32.0471 C   0  0  1  0  0  0  0  0  0  0  0  0
   20.5277   22.6497   30.7027 O   0  0  0  0  0  0  0  0  0  0  0  0
   16.7132   31.6873   35.4305 C   0  0  2  0  0  0  0  0  0  0  0  0
   17.1009   31.0184   34.1687 O   0  0  0  0  0  0  0  0  0  0  0  0
   17.5253   26.7714   34.1084 C   0  0  2  0  0  0  0  0  0  0  0  0
   18.2731   27.2165   32.9786 O   0  0  0  0  0  0  0  0  0  0  0  0
   20.1029   24.2619   32.4936 C   0  0  0  0  0  0  0  0  0  0  0  0
   19.1884   25.0887   31.6701 O   0  0  0  0  0  0  0  0  0  0  0  0
   15.5439   32.6633   35.1134 C   0  0  2  0  0  0  0  0  0  0  0  0
   15.2174   33.4072   36.2925 O   0  0  0  0  0  0  0  0  0  0  0  0
   16.5472   25.6710   33.6280 C   0  0  1  0  0  0  0  0  0  0  0  0
   17.3386   24.5624   33.1187 O   0  0  0  0  0  0  0  0  0  0  0  0
   14.2966   31.9339   34.6653 C   0  0  0  0  0  0  0  0  0  0  0  0
   21.0157   21.9482   32.9323 C   0  0  0  0  0  0  0  0  0  0  0  0
   17.6768   20.1186   32.6730 C   0  0  0  0  0  0  0  0  0  0  0  0
  1  2  1  1  0  0  0
  1  6  1  0  0  0  0
  1 23  1  0  0  0  0
  3  4  1  6  0  0  0
  3  8  1  0  0  0  0
  3 30  1  0  0  0  0
  5  9  1  0  0  0  0
  5 27  1  0  0  0  0
  5 31  1  1  0  0  0
  6  7  1  1  0  0  0
  6 11  1  0  0  0  0
  8 13  1  0  0  0  0
  9 10  1  1  0  0  0
  9 15  1  0  0  0  0
 11 12  1  6  0  0  0
 11 17  1  0  0  0  0
 13 14  1  6  0  0  0
 13 19  1  0  0  0  0
 15 16  1  6  0  0  0
 15 20  1  0  0  0  0
 16 34  1  0  0  0  0
 17 18  1  1  0  0  0
 17 22  1  0  0  0  0
 19  2  1  1  0  0  0
 19 24  1  0  0  0  0
 20 21  1  6  0  0  0
 20 26  1  0  0  0  0
 20 33  1  0  0  0  0
 22 23  1  6  0  0  0
 22 28  1  0  0  0  0
 24 25  1  6  0  0  0
 24 30  1  0  0  0  0
 26 27  1  0  0  0  0
 28 29  1  1  0  0  0
 28 32  1  0  0  0  0
 30 31  1  1  0  0  0
M  END
>  <CHROM.1>
-162.84709456,-151.53396594,-104.39387687,-52.82638434,159.64345857,-143.11517231
17.66018900,27.18004560,34.06709070,-1.71017644,-0.15809065,-2.77250086

>  <Name>
ligand

>  <RI>
0

>  <Rbt.Current_Directory>
/home/itssahil/PROJECTS/Mol_Feturizer/New_Systems/rnas/4p3s

>  <Rbt.Executable>
rbdock ($Id: //depot/dev/client3/rdock/2013.1/src/exe/rbdock.cxx#4 $)

>  <Rbt.Library>
libRbt.so (2013.1, Build901 2013/11/27)

>  <Rbt.Parameter_File>
/export/apps/rDock/src/rDock_2013.1_src/data/scripts/dock_solv.prm

>  <Rbt.Receptor>
prm/pocket_docking_6.prm

>  <SCORE>
-17.0147

>  <SCORE.INTER>
-15.4333

>  <SCORE.INTER.CONST>
1

>  <SCORE.INTER.POLAR>
0

>  <SCORE.INTER.ROT>
6

>  <SCORE.INTER.SOLV>
16.4097

>  <SCORE.INTER.VDW>
-23.3588

>  <SCORE.INTER.norm>
-0.453922

>  <SCORE.INTRA>
-1.58135

>  <SCORE.INTRA.DIHEDRAL>
-3.17079

>  <SCORE.INTRA.DIHEDRAL.0>
15.8194

>  <SCORE.INTRA.POLAR>
0

>  <SCORE.INTRA.POLAR.0>
0

>  <SCORE.INTRA.REPUL>
0

>  <SCORE.INTRA.REPUL.0>
0

>  <SCORE.INTRA.SOLV>
0.425728

>  <SCORE.INTRA.SOLV.lig_0>
-71.9159

>  <SCORE.INTRA.VDW>
-0.208819

>  <SCORE.INTRA.VDW.0>
-3.53918

>  <SCORE.INTRA.norm>
-0.0465103

>  <SCORE.RESTR>
0

>  <SCORE.RESTR.CAVITY>
0

>  <SCORE.RESTR.norm>
0

>  <SCORE.SYSTEM>
0

>  <SCORE.SYSTEM.CONST>
0

>  <SCORE.SYSTEM.DIHEDRAL>
0

>  <SCORE.SYSTEM.SOLV>
0

>  <SCORE.SYSTEM.norm>
0

>  <SCORE.heavy>
34

>  <SCORE.norm>
-0.500432

>  <RMSD>
9.434

$$$$
ligand
 OpenBabel01301917533D
libRbt.so/2013.1/901 2013/11/27
 34 36  0  0  0  0  0  0  0  0999 V2000
   18.4149   29.4214   34.4303 C   0  0  2  0  0  0  0  0  0  0  0  0
   17.7181   28.5145   35.2907 O   0  0  0  0  0  0  0  0  0  0  0  0
   15.6842   24.7776   34.7420 C   0  0  2  0  0  0  0  0  0  0  0  0
   14.7226   23.7624   34.2913 N   0  0  0  0  0  0  0  0  0  0  0  0
   17.8093   24.3490   31.5764 C   0  0  2  0  0  0  0  0  0  0  0  0
   19.4665   30.2082   35.2997 C   0  0  2  0  0  0  0  0  0  0  0  0
   20.4136   29.2831   35.9424 N   0  0  0  0  0  0  0  0  0  0  0  0
   14.8683   25.9621   35.3748 C   0  0  0  0  0  0  0  0  0  0  0  0
   17.8543   22.8804   30.9964 C   0  0  2  0  0  0  0  0  0  0  0  0
   16.5497   22.3287   30.9514 O   0  0  0  0  0  0  0  0  0  0  0  0
   18.7390   31.0652   36.3792 C   0  0  1  0  0  0  0  0  0  0  0  0
   19.6967   31.7861   37.1763 O   0  0  0  0  0  0  0  0  0  0  0  0
   15.8971   27.0370   35.8732 C   0  0  2  0  0  0  0  0  0  0  0  0
   15.1896   28.1989   36.4831 N   0  0  0  0  0  0  0  0  0  0  0  0
   18.7822   22.0128   31.9284 C   0  0  1  0  0  0  0  0  0  0  0  0
   18.8381   20.6135   31.4598 N   0  0  0  0  0  0  0  0  0  0  0  0
   17.7581   32.0223   35.6624 C   0  0  2  0  0  0  0  0  0  0  0  0
   17.0875   32.8283   36.6365 O   0  0  0  0  0  0  0  0  0  0  0  0
   16.7799   27.5485   34.6950 C   0  0  2  0  0  0  0  0  0  0  0  0
   20.2130   22.6380   31.9457 C   0  0  1  0  0  0  0  0  0  0  0  0
   20.7350   22.6034   30.6214 O   0  0  0  0  0  0  0  0  0  0  0  0
   16.7305   31.1585   34.8116 C   0  0  2  0  0  0  0  0  0  0  0  0
   17.4438   30.3252   33.8182 O   0  0  0  0  0  0  0  0  0  0  0  0
   17.5186   26.3437   34.0514 C   0  0  2  0  0  0  0  0  0  0  0  0
   18.2930   26.8336   32.9587 O   0  0  0  0  0  0  0  0  0  0  0  0
   20.1119   24.1167   32.4405 C   0  0  0  0  0  0  0  0  0  0  0  0
   19.1770   24.9036   31.6010 O   0  0  0  0  0  0  0  0  0  0  0  0
   15.6995   32.0364   34.0457 C   0  0  2  0  0  0  0  0  0  0  0  0
   16.3867   33.1087   33.3915 O   0  0  0  0  0  0  0  0  0  0  0  0
   16.5284   25.2894   33.4979 C   0  0  1  0  0  0  0  0  0  0  0  0
   17.3075   24.1944   32.9425 O   0  0  0  0  0  0  0  0  0  0  0  0
   14.6671   32.6430   34.9702 C   0  0  0  0  0  0  0  0  0  0  0  0
   21.1724   21.8610   32.8483 C   0  0  0  0  0  0  0  0  0  0  0  0
   18.0615   19.7918   32.4203 C   0  0  0  0  0  0  0  0  0  0  0  0
  1  2  1  1  0  0  0
  1  6  1  0  0  0  0
  1 23  1  0  0  0  0
  3  4  1  6  0  0  0
  3  8  1  0  0  0  0
  3 30  1  0  0  0  0
  5  9  1  0  0  0  0
  5 27  1  0  0  0  0
  5 31  1  1  0  0  0
  6  7  1  1  0  0  0
  6 11  1  0  0  0  0
  8 13  1  0  0  0  0
  9 10  1  1  0  0  0
  9 15  1  0  0  0  0
 11 12  1  6  0  0  0
 11 17  1  0  0  0  0
 13 14  1  6  0  0  0
 13 19  1  0  0  0  0
 15 16  1  6  0  0  0
 15 20  1  0  0  0  0
 16 34  1  0  0  0  0
 17 18  1  1  0  0  0
 17 22  1  0  0  0  0
 19  2  1  1  0  0  0
 19 24  1  0  0  0  0
 20 21  1  6  0  0  0
 20 26  1  0  0  0  0
 20 33  1  0  0  0  0
 22 23  1  6  0  0  0
 22 28  1  0  0  0  0
 24 25  1  6  0  0  0
 24 30  1  0  0  0  0
 26 27  1  0  0  0  0
 28 29  1  1  0  0  0
 28 32  1  0  0  0  0
 30 31  1  1  0  0  0
M  END
>  <CHROM.1>
-173.22984292,-163.32065754,-107.82868048,46.49431468,161.30071538,-149.35016319
17.72870137,26.85667407,33.85284458,-1.71595657,-0.15972561,-2.80115396

>  <Name>
ligand

>  <RI>
0

>  <Rbt.Current_Directory>
/home/itssahil/PROJECTS/Mol_Feturizer/New_Systems/rnas/4p3s

>  <Rbt.Executable>
rbdock ($Id: //depot/dev/client3/rdock/2013.1/src/exe/rbdock.cxx#4 $)

>  <Rbt.Library>
libRbt.so (2013.1, Build901 2013/11/27)

>  <Rbt.Parameter_File>
/export/apps/rDock/src/rDock_2013.1_src/data/scripts/dock_solv.prm

>  <Rbt.Receptor>
prm/pocket_docking_7.prm

>  <SCORE>
-19.3594

>  <SCORE.INTER>
-15.8129

>  <SCORE.INTER.CONST>
1

>  <SCORE.INTER.POLAR>
0

>  <SCORE.INTER.ROT>
6

>  <SCORE.INTER.SOLV>
16.5504

>  <SCORE.INTER.VDW>
-23.6588

>  <SCORE.INTER.norm>
-0.465086

>  <SCORE.INTRA>
-3.54653

>  <SCORE.INTRA.DIHEDRAL>
-7.22889

>  <SCORE.INTRA.DIHEDRAL.0>
15.8194

>  <SCORE.INTRA.POLAR>
0

>  <SCORE.INTRA.POLAR.0>
0

>  <SCORE.INTRA.REPUL>
0

>  <SCORE.INTRA.REPUL.0>
0

>  <SCORE.INTRA.SOLV>
-1.04654

>  <SCORE.INTRA.SOLV.lig_0>
-71.9159

>  <SCORE.INTRA.VDW>
0.591184

>  <SCORE.INTRA.VDW.0>
-3.53918

>  <SCORE.INTRA.norm>
-0.10431

>  <SCORE.RESTR>
0

>  <SCORE.RESTR.CAVITY>
0

>  <SCORE.RESTR.norm>
0

>  <SCORE.SYSTEM>
0

>  <SCORE.SYSTEM.CONST>
0

>  <SCORE.SYSTEM.DIHEDRAL>
0

>  <SCORE.SYSTEM.SOLV>
0

>  <SCORE.SYSTEM.norm>
0

>  <SCORE.heavy>
34

>  <SCORE.norm>
-0.569395

>  <RMSD>
9.441

$$$$
ligand
 OpenBabel01301917533D
libRbt.so/2013.1/901 2013/11/27
 34 36  0  0  0  0  0  0  0  0999 V2000
   18.3466   29.4167   34.2979 C   0  0  2  0  0  0  0  0  0  0  0  0
   17.6835   28.5011   35.1756 O   0  0  0  0  0  0  0  0  0  0  0  0
   15.7239   24.7164   34.6874 C   0  0  2  0  0  0  0  0  0  0  0  0
   14.7784   23.6766   34.2590 N   0  0  0  0  0  0  0  0  0  0  0  0
   17.8960   24.3473   31.5329 C   0  0  2  0  0  0  0  0  0  0  0  0
   19.4364   30.1896   35.1320 C   0  0  2  0  0  0  0  0  0  0  0  0
   20.4065   29.2538   35.7228 N   0  0  0  0  0  0  0  0  0  0  0  0
   14.8913   25.8885   35.3215 C   0  0  0  0  0  0  0  0  0  0  0  0
   17.9710   22.8960   30.9136 C   0  0  2  0  0  0  0  0  0  0  0  0
   16.6713   22.3438   30.7947 O   0  0  0  0  0  0  0  0  0  0  0  0
   18.7577   31.0351   36.2517 C   0  0  1  0  0  0  0  0  0  0  0  0
   19.7505   31.7432   37.0168 O   0  0  0  0  0  0  0  0  0  0  0  0
   15.9033   26.9898   35.7962 C   0  0  2  0  0  0  0  0  0  0  0  0
   15.1792   28.1414   36.4061 N   0  0  0  0  0  0  0  0  0  0  0  0
   18.8591   22.0034   31.8606 C   0  0  1  0  0  0  0  0  0  0  0  0
   18.9398   20.6183   31.3549 N   0  0  0  0  0  0  0  0  0  0  0  0
   17.7508   32.0039   35.5887 C   0  0  2  0  0  0  0  0  0  0  0  0
   17.1244   32.7994   36.6000 O   0  0  0  0  0  0  0  0  0  0  0  0
   16.7584   27.5098   34.6013 C   0  0  2  0  0  0  0  0  0  0  0  0
   20.2859   22.6302   31.9596 C   0  0  1  0  0  0  0  0  0  0  0  0
   20.8663   22.6346   30.6594 O   0  0  0  0  0  0  0  0  0  0  0  0
   16.6855   31.1537   34.7712 C   0  0  2  0  0  0  0  0  0  0  0  0
   17.3537   30.3309   33.7384 O   0  0  0  0  0  0  0  0  0  0  0  0
   17.5141   26.3156   33.9577 C   0  0  2  0  0  0  0  0  0  0  0  0
   18.2624   26.8125   32.8501 O   0  0  0  0  0  0  0  0  0  0  0  0
   20.1586   24.0938   32.4917 C   0  0  0  0  0  0  0  0  0  0  0  0
   19.2596   24.9031   31.6344 O   0  0  0  0  0  0  0  0  0  0  0  0
   15.6262   32.0440   34.0602 C   0  0  2  0  0  0  0  0  0  0  0  0
   16.2909   33.1079   33.3700 O   0  0  0  0  0  0  0  0  0  0  0  0
   16.5394   25.2353   33.4273 C   0  0  1  0  0  0  0  0  0  0  0  0
   17.3344   24.1524   32.8704 O   0  0  0  0  0  0  0  0  0  0  0  0
   14.6515   32.6632   35.0376 C   0  0  0  0  0  0  0  0  0  0  0  0
   21.2064   21.8290   32.8813 C   0  0  0  0  0  0  0  0  0  0  0  0
   17.9904   19.7996   32.1481 C   0  0  0  0  0  0  0  0  0  0  0  0
  1  2  1  1  0  0  0
  1  6  1  0  0  0  0
  1 23  1  0  0  0  0
  3  4  1  6  0  0  0
  3  8  1  0  0  0  0
  3 30  1  0  0  0  0
  5  9  1  0  0  0  0
  5 27  1  0  0  0  0
  5 31  1  1  0  0  0
  6  7  1  1  0  0  0
  6 11  1  0  0  0  0
  8 13  1  0  0  0  0
  9 10  1  1  0  0  0
  9 15  1  0  0  0  0
 11 12  1  6  0  0  0
 11 17  1  0  0  0  0
 13 14  1  6  0  0  0
 13 19  1  0  0  0  0
 15 16  1  6  0  0  0
 15 20  1  0  0  0  0
 16 34  1  0  0  0  0
 17 18  1  1  0  0  0
 17 22  1  0  0  0  0
 19  2  1  1  0  0  0
 19 24  1  0  0  0  0
 20 21  1  6  0  0  0
 20 26  1  0  0  0  0
 20 33  1  0  0  0  0
 22 23  1  6  0  0  0
 22 28  1  0  0  0  0
 24 25  1  6  0  0  0
 24 30  1  0  0  0  0
 26 27  1  0  0  0  0
 28 29  1  1  0  0  0
 28 32  1  0  0  0  0
 30 31  1  1  0  0  0
M  END
>  <CHROM.1>
-170.81846619,-163.21335215,-100.77147852,47.58787076,165.67970955,-149.95675776
17.74448765,26.83755225,33.78286006,-1.72609446,-0.16319403,-2.80494001

>  <Name>
ligand

>  <RI>
0

>  <Rbt.Current_Directory>
/home/itssahil/PROJECTS/Mol_Feturizer/New_Systems/rnas/4p3s

>  <Rbt.Executable>
rbdock ($Id: //depot/dev/client3/rdock/2013.1/src/exe/rbdock.cxx#4 $)

>  <Rbt.Library>
libRbt.so (2013.1, Build901 2013/11/27)

>  <Rbt.Parameter_File>
/export/apps/rDock/src/rDock_2013.1_src/data/scripts/dock_solv.prm

>  <Rbt.Receptor>
prm/pocket_docking_6.prm

>  <SCORE>
-19.2227

>  <SCORE.INTER>
-15.7527

>  <SCORE.INTER.CONST>
1

>  <SCORE.INTER.POLAR>
0

>  <SCORE.INTER.ROT>
6

>  <SCORE.INTER.SOLV>
17.0059

>  <SCORE.INTER.VDW>
-23.7704

>  <SCORE.INTER.norm>
-0.463314

>  <SCORE.INTRA>
-3.46999

>  <SCORE.INTRA.DIHEDRAL>
-8.01379

>  <SCORE.INTRA.DIHEDRAL.0>
15.8194

>  <SCORE.INTRA.POLAR>
0

>  <SCORE.INTRA.POLAR.0>
0

>  <SCORE.INTRA.REPUL>
0

>  <SCORE.INTRA.REPUL.0>
0

>  <SCORE.INTRA.SOLV>
-1.11238

>  <SCORE.INTRA.SOLV.lig_0>
-71.9159

>  <SCORE.INTRA.VDW>
1.09309

>  <SCORE.INTRA.VDW.0>
-3.53918

>  <SCORE.INTRA.norm>
-0.102058

>  <SCORE.RESTR>
0

>  <SCORE.RESTR.CAVITY>
0

>  <SCORE.RESTR.norm>
0

>  <SCORE.SYSTEM>
0

>  <SCORE.SYSTEM.CONST>
0

>  <SCORE.SYSTEM.DIHEDRAL>
0

>  <SCORE.SYSTEM.SOLV>
0

>  <SCORE.SYSTEM.norm>
0

>  <SCORE.heavy>
34

>  <SCORE.norm>
-0.565373

>  <RMSD>
9.453

$$$$
ligand
 OpenBabel01301917533D
libRbt.so/2013.1/901 2013/11/27
 34 36  0  0  0  0  0  0  0  0999 V2000
   18.4173   29.4423   34.3259 C   0  0  2  0  0  0  0  0  0  0  0  0
   17.7562   28.5106   35.1879 O   0  0  0  0  0  0  0  0  0  0  0  0
   15.7021   24.7794   34.6771 C   0  0  2  0  0  0  0  0  0  0  0  0
   14.7365   23.7643   34.2347 N   0  0  0  0  0  0  0  0  0  0  0  0
   17.8289   24.2914   31.5234 C   0  0  2  0  0  0  0  0  0  0  0  0
   19.4799   30.2294   35.1815 C   0  0  2  0  0  0  0  0  0  0  0  0
   20.4566   29.3073   35.7831 N   0  0  0  0  0  0  0  0  0  0  0  0
   14.8904   25.9769   35.2905 C   0  0  0  0  0  0  0  0  0  0  0  0
   17.8761   22.8114   30.9730 C   0  0  2  0  0  0  0  0  0  0  0  0
   16.5726   22.2559   30.9423 O   0  0  0  0  0  0  0  0  0  0  0  0
   18.7688   31.0569   36.2943 C   0  0  1  0  0  0  0  0  0  0  0  0
   19.7366   31.7779   37.0791 O   0  0  0  0  0  0  0  0  0  0  0  0
   15.9233   27.0519   35.7802 C   0  0  2  0  0  0  0  0  0  0  0  0
   15.2198   28.2258   36.3715 N   0  0  0  0  0  0  0  0  0  0  0  0
   18.8083   21.9650   31.9200 C   0  0  1  0  0  0  0  0  0  0  0  0
   18.8664   20.5566   31.4795 N   0  0  0  0  0  0  0  0  0  0  0  0
   17.7560   32.0118   35.6202 C   0  0  2  0  0  0  0  0  0  0  0  0
   17.0996   32.7908   36.6253 O   0  0  0  0  0  0  0  0  0  0  0  0
   16.8151   27.5428   34.5999 C   0  0  2  0  0  0  0  0  0  0  0  0
   20.2376   22.5938   31.9212 C   0  0  1  0  0  0  0  0  0  0  0  0
   20.7565   22.5337   30.5966 O   0  0  0  0  0  0  0  0  0  0  0  0
   16.7189   31.1477   34.7812 C   0  0  2  0  0  0  0  0  0  0  0  0
   17.4178   30.3422   33.7551 O   0  0  0  0  0  0  0  0  0  0  0  0
   17.5495   26.3252   33.9756 C   0  0  2  0  0  0  0  0  0  0  0  0
   18.3324   26.7963   32.8806 O   0  0  0  0  0  0  0  0  0  0  0  0
   20.1342   24.0818   32.3864 C   0  0  0  0  0  0  0  0  0  0  0  0
   19.1953   24.8495   31.5335 O   0  0  0  0  0  0  0  0  0  0  0  0
   15.6559   32.0234   34.0577 C   0  0  2  0  0  0  0  0  0  0  0  0
   16.3092   33.1233   33.4146 O   0  0  0  0  0  0  0  0  0  0  0  0
   16.5556   25.2699   33.4308 C   0  0  1  0  0  0  0  0  0  0  0  0
   17.3308   24.1631   32.8936 O   0  0  0  0  0  0  0  0  0  0  0  0
   14.6325   32.5891   35.0176 C   0  0  0  0  0  0  0  0  0  0  0  0
   21.2009   21.8373   32.8370 C   0  0  0  0  0  0  0  0  0  0  0  0
   18.1119   19.7498   32.4697 C   0  0  0  0  0  0  0  0  0  0  0  0
  1  2  1  1  0  0  0
  1  6  1  0  0  0  0
  1 23  1  0  0  0  0
  3  4  1  6  0  0  0
  3  8  1  0  0  0  0
  3 30  1  0  0  0  0
  5  9  1  0  0  0  0
  5 27  1  0  0  0  0
  5 31  1  1  0  0  0
  6  7  1  1  0  0  0
  6 11  1  0  0  0  0
  8 13  1  0  0  0  0
  9 10  1  1  0  0  0
  9 15  1  0  0  0  0
 11 12  1  6  0  0  0
 11 17  1  0  0  0  0
 13 14  1  6  0  0  0
 13 19  1  0  0  0  0
 15 16  1  6  0  0  0
 15 20  1  0  0  0  0
 16 34  1  0  0  0  0
 17 18  1  1  0  0  0
 17 22  1  0  0  0  0
 19  2  1  1  0  0  0
 19 24  1  0  0  0  0
 20 21  1  6  0  0  0
 20 26  1  0  0  0  0
 20 33  1  0  0  0  0
 22 23  1  6  0  0  0
 22 28  1  0  0  0  0
 24 25  1  6  0  0  0
 24 30  1  0  0  0  0
 26 27  1  0  0  0  0
 28 29  1  1  0  0  0
 28 32  1  0  0  0  0
 30 31  1  1  0  0  0
M  END
>  <CHROM.1>
-173.32077459,-160.52763440,-108.69397784,46.00148302,160.70505064,-149.63022236
17.74422734,26.83635877,33.80323216,-1.71973218,-0.15026511,-2.80471868

>  <Name>
ligand

>  <RI>
0

>  <Rbt.Current_Directory>
/home/itssahil/PROJECTS/Mol_Feturizer/New_Systems/rnas/4p3s

>  <Rbt.Executable>
rbdock ($Id: //depot/dev/client3/rdock/2013.1/src/exe/rbdock.cxx#4 $)

>  <Rbt.Library>
libRbt.so (2013.1, Build901 2013/11/27)

>  <Rbt.Parameter_File>
/export/apps/rDock/src/rDock_2013.1_src/data/scripts/dock_solv.prm

>  <Rbt.Receptor>
prm/pocket_docking_8.prm

>  <SCORE>
-19.4021

>  <SCORE.INTER>
-16.1737

>  <SCORE.INTER.CONST>
1

>  <SCORE.INTER.POLAR>
0

>  <SCORE.INTER.ROT>
6

>  <SCORE.INTER.SOLV>
16.7179

>  <SCORE.INTER.VDW>
-23.9551

>  <SCORE.INTER.norm>
-0.475697

>  <SCORE.INTRA>
-3.22839

>  <SCORE.INTRA.DIHEDRAL>
-6.70801

>  <SCORE.INTRA.DIHEDRAL.0>
15.8194

>  <SCORE.INTRA.POLAR>
0

>  <SCORE.INTRA.POLAR.0>
0

>  <SCORE.INTRA.REPUL>
0

>  <SCORE.INTRA.REPUL.0>
0

>  <SCORE.INTRA.SOLV>
-0.787676

>  <SCORE.INTRA.SOLV.lig_0>
-71.9159

>  <SCORE.INTRA.VDW>
0.519451

>  <SCORE.INTRA.VDW.0>
-3.53918

>  <SCORE.INTRA.norm>
-0.0949527

>  <SCORE.RESTR>
0

>  <SCORE.RESTR.CAVITY>
0

>  <SCORE.RESTR.norm>
0

>  <SCORE.SYSTEM>
0

>  <SCORE.SYSTEM.CONST>
0

>  <SCORE.SYSTEM.DIHEDRAL>
0

>  <SCORE.SYSTEM.SOLV>
0

>  <SCORE.SYSTEM.norm>
0

>  <SCORE.heavy>
34

>  <SCORE.norm>
-0.570649

>  <RMSD>
9.463

$$$$
ligand
 OpenBabel01301917533D
libRbt.so/2013.1/901 2013/11/27
 34 36  0  0  0  0  0  0  0  0999 V2000
   20.5009   28.6758   35.0753 C   0  0  2  0  0  0  0  0  0  0  0  0
   19.1547   28.4994   35.5278 O   0  0  0  0  0  0  0  0  0  0  0  0
   16.3568   25.3058   34.9153 C   0  0  2  0  0  0  0  0  0  0  0  0
   15.3747   24.4078   34.2927 N   0  0  0  0  0  0  0  0  0  0  0  0
   19.4544   23.4115   33.6079 C   0  0  2  0  0  0  0  0  0  0  0  0
   21.2558   29.5724   36.1275 C   0  0  2  0  0  0  0  0  0  0  0  0
   21.2416   28.9444   37.4585 N   0  0  0  0  0  0  0  0  0  0  0  0
   15.8246   26.7765   34.7631 C   0  0  0  0  0  0  0  0  0  0  0  0
   18.9266   23.0516   32.1632 C   0  0  2  0  0  0  0  0  0  0  0  0
   18.3404   24.1899   31.5556 O   0  0  0  0  0  0  0  0  0  0  0  0
   20.6042   30.9865   36.1958 C   0  0  1  0  0  0  0  0  0  0  0  0
   21.2911   31.8094   37.1567 O   0  0  0  0  0  0  0  0  0  0  0  0
   16.8647   27.7330   35.4453 C   0  0  2  0  0  0  0  0  0  0  0  0
   16.4252   29.1531   35.3333 N   0  0  0  0  0  0  0  0  0  0  0  0
   17.8624   21.8981   32.3025 C   0  0  1  0  0  0  0  0  0  0  0  0
   17.3008   21.5383   30.9849 N   0  0  0  0  0  0  0  0  0  0  0  0
   20.6421   31.6098   34.7808 C   0  0  2  0  0  0  0  0  0  0  0  0
   20.0586   32.9158   34.8238 O   0  0  0  0  0  0  0  0  0  0  0  0
   18.2688   27.5879   34.7844 C   0  0  2  0  0  0  0  0  0  0  0  0
   18.5419   20.6562   32.9615 C   0  0  1  0  0  0  0  0  0  0  0  0
   19.5897   20.2103   32.1067 O   0  0  0  0  0  0  0  0  0  0  0  0
   19.8609   30.6538   33.7798 C   0  0  2  0  0  0  0  0  0  0  0  0
   20.4729   29.3065   33.7578 O   0  0  0  0  0  0  0  0  0  0  0  0
   18.7332   26.1102   34.8937 C   0  0  2  0  0  0  0  0  0  0  0  0
   20.0034   25.9986   34.2551 O   0  0  0  0  0  0  0  0  0  0  0  0
   19.1273   21.0772   34.3477 C   0  0  0  0  0  0  0  0  0  0  0  0
   20.0698   22.2137   34.2125 O   0  0  0  0  0  0  0  0  0  0  0  0
   19.8471   31.1954   32.3215 C   0  0  2  0  0  0  0  0  0  0  0  0
   18.9994   30.3668   31.5185 O   0  0  0  0  0  0  0  0  0  0  0  0
   17.7553   25.1444   34.1800 C   0  0  1  0  0  0  0  0  0  0  0  0
   18.2562   23.7909   34.3579 O   0  0  0  0  0  0  0  0  0  0  0  0
   21.2252   31.1914   31.6974 C   0  0  0  0  0  0  0  0  0  0  0  0
   17.5646   19.4951   33.1503 C   0  0  0  0  0  0  0  0  0  0  0  0
   15.8500   21.8457   31.0213 C   0  0  0  0  0  0  0  0  0  0  0  0
  1  2  1  1  0  0  0
  1  6  1  0  0  0  0
  1 23  1  0  0  0  0
  3  4  1  6  0  0  0
  3  8  1  0  0  0  0
  3 30  1  0  0  0  0
  5  9  1  0  0  0  0
  5 27  1  0  0  0  0
  5 31  1  1  0  0  0
  6  7  1  1  0  0  0
  6 11  1  0  0  0  0
  8 13  1  0  0  0  0
  9 10  1  1  0  0  0
  9 15  1  0  0  0  0
 11 12  1  1  0  0  0
 11 17  1  0  0  0  0
 13 14  1  6  0  0  0
 13 19  1  0  0  0  0
 15 16  1  6  0  0  0
 15 20  1  0  0  0  0
 16 34  1  0  0  0  0
 17 18  1  1  0  0  0
 17 22  1  0  0  0  0
 19  2  1  1  0  0  0
 19 24  1  0  0  0  0
 20 21  1  6  0  0  0
 20 26  1  0  0  0  0
 20 33  1  0  0  0  0
 22 23  1  6  0  0  0
 22 28  1  0  0  0  0
 24 25  1  6  0  0  0
 24 30  1  0  0  0  0
 26 27  1  0  0  0  0
 28 29  1  6  0  0  0
 28 32  1  0  0  0  0
 30 31  1  1  0  0  0
M  END
>  <CHROM.1>
-174.17874664,-174.63674029,-116.96761430,-173.32620092,172.53456301,-81.15266754
18.89438703,26.39591154,33.97477101,-1.06192610,1.08326272,2.90559949

>  <Name>
ligand

>  <RI>
0

>  <Rbt.Current_Directory>
/home/itssahil/PROJECTS/Mol_Feturizer/New_Systems/rnas/4p3s

>  <Rbt.Executable>
rbdock ($Id: //depot/dev/client3/rdock/2013.1/src/exe/rbdock.cxx#4 $)

>  <Rbt.Library>
libRbt.so (2013.1, Build901 2013/11/27)

>  <Rbt.Parameter_File>
/export/apps/rDock/src/rDock_2013.1_src/data/scripts/dock_solv.prm

>  <Rbt.Receptor>
prm/pocket_docking_6.prm

>  <SCORE>
-12.1231

>  <SCORE.INTER>
-7.01738

>  <SCORE.INTER.CONST>
1

>  <SCORE.INTER.POLAR>
0

>  <SCORE.INTER.ROT>
6

>  <SCORE.INTER.SOLV>
14.3047

>  <SCORE.INTER.VDW>
-17.0465

>  <SCORE.INTER.norm>
-0.206394

>  <SCORE.INTRA>
-5.10576

>  <SCORE.INTRA.DIHEDRAL>
-11.7848

>  <SCORE.INTRA.DIHEDRAL.0>
15.8194

>  <SCORE.INTRA.POLAR>
0

>  <SCORE.INTRA.POLAR.0>
0

>  <SCORE.INTRA.REPUL>
0

>  <SCORE.INTRA.REPUL.0>
0

>  <SCORE.INTRA.SOLV>
-0.974065

>  <SCORE.INTRA.SOLV.lig_0>
-71.9159

>  <SCORE.INTRA.VDW>
1.27366

>  <SCORE.INTRA.VDW.0>
-3.53918

>  <SCORE.INTRA.norm>
-0.15017

>  <SCORE.RESTR>
0

>  <SCORE.RESTR.CAVITY>
0

>  <SCORE.RESTR.norm>
0

>  <SCORE.SYSTEM>
0

>  <SCORE.SYSTEM.CONST>
0

>  <SCORE.SYSTEM.DIHEDRAL>
0

>  <SCORE.SYSTEM.SOLV>
0

>  <SCORE.SYSTEM.norm>
0

>  <SCORE.heavy>
34

>  <SCORE.norm>
-0.356563

>  <RMSD>
9.472

$$$$
ligand
 OpenBabel01301917533D
libRbt.so/2013.1/901 2013/11/27
 34 36  0  0  0  0  0  0  0  0999 V2000
   18.4251   29.4545   34.2553 C   0  0  2  0  0  0  0  0  0  0  0  0
   17.7698   28.5359   35.1355 O   0  0  0  0  0  0  0  0  0  0  0  0
   15.7377   24.7851   34.6833 C   0  0  2  0  0  0  0  0  0  0  0  0
   14.7744   23.7590   34.2618 N   0  0  0  0  0  0  0  0  0  0  0  0
   17.8489   24.2939   31.5161 C   0  0  2  0  0  0  0  0  0  0  0  0
   19.5191   30.2279   35.0834 C   0  0  2  0  0  0  0  0  0  0  0  0
   20.4950   29.2927   35.6656 N   0  0  0  0  0  0  0  0  0  0  0  0
   14.9245   25.9822   35.2957 C   0  0  0  0  0  0  0  0  0  0  0  0
   17.8852   22.8155   30.9607 C   0  0  2  0  0  0  0  0  0  0  0  0
   16.5776   22.2700   30.9276 O   0  0  0  0  0  0  0  0  0  0  0  0
   18.8465   31.0698   36.2094 C   0  0  1  0  0  0  0  0  0  0  0  0
   19.8431   31.7783   36.9691 O   0  0  0  0  0  0  0  0  0  0  0  0
   15.9551   27.0691   35.7631 C   0  0  2  0  0  0  0  0  0  0  0  0
   15.2501   28.2431   36.3524 N   0  0  0  0  0  0  0  0  0  0  0  0
   18.8106   21.9589   31.9052 C   0  0  1  0  0  0  0  0  0  0  0  0
   18.8583   20.5517   31.4599 N   0  0  0  0  0  0  0  0  0  0  0  0
   17.8332   32.0380   35.5554 C   0  0  2  0  0  0  0  0  0  0  0  0
   17.2122   32.8302   36.5726 O   0  0  0  0  0  0  0  0  0  0  0  0
   16.8289   27.5558   34.5677 C   0  0  2  0  0  0  0  0  0  0  0  0
   20.2446   22.5769   31.9091 C   0  0  1  0  0  0  0  0  0  0  0  0
   20.7636   22.5175   30.5846 O   0  0  0  0  0  0  0  0  0  0  0  0
   16.7640   31.1873   34.7435 C   0  0  2  0  0  0  0  0  0  0  0  0
   17.4266   30.3680   33.7045 O   0  0  0  0  0  0  0  0  0  0  0  0
   17.5648   26.3382   33.9455 C   0  0  2  0  0  0  0  0  0  0  0  0
   18.3308   26.8050   32.8369 O   0  0  0  0  0  0  0  0  0  0  0  0
   20.1521   24.0641   32.3794 C   0  0  0  0  0  0  0  0  0  0  0  0
   19.2195   24.8418   31.5288 O   0  0  0  0  0  0  0  0  0  0  0  0
   15.6981   32.0771   34.0416 C   0  0  2  0  0  0  0  0  0  0  0  0
   16.3529   33.1672   33.3834 O   0  0  0  0  0  0  0  0  0  0  0  0
   16.5723   25.2706   33.4223 C   0  0  1  0  0  0  0  0  0  0  0  0
   17.3492   24.1647   32.8857 O   0  0  0  0  0  0  0  0  0  0  0  0
   14.7032   32.6578   35.0221 C   0  0  0  0  0  0  0  0  0  0  0  0
   21.2018   21.8101   32.8227 C   0  0  0  0  0  0  0  0  0  0  0  0
   18.0644   19.7528   32.4255 C   0  0  0  0  0  0  0  0  0  0  0  0
  1  2  1  1  0  0  0
  1  6  1  0  0  0  0
  1 23  1  0  0  0  0
  3  4  1  6  0  0  0
  3  8  1  0  0  0  0
  3 30  1  0  0  0  0
  5  9  1  0  0  0  0
  5 27  1  0  0  0  0
  5 31  1  1  0  0  0
  6  7  1  1  0  0  0
  6 11  1  0  0  0  0
  8 13  1  0  0  0  0
  9 10  1  1  0  0  0
  9 15  1  0  0  0  0
 11 12  1  6  0  0  0
 11 17  1  0  0  0  0
 13 14  1  6  0  0  0
 13 19  1  0  0  0  0
 15 16  1  6  0  0  0
 15 20  1  0  0  0  0
 16 34  1  0  0  0  0
 17 18  1  1  0  0  0
 17 22  1  0  0  0  0
 19  2  1  1  0  0  0
 19 24  1  0  0  0  0
 20 21  1  6  0  0  0
 20 26  1  0  0  0  0
 20 33  1  0  0  0  0
 22 23  1  6  0  0  0
 22 28  1  0  0  0  0
 24 25  1  6  0  0  0
 24 30  1  0  0  0  0
 26 27  1  0  0  0  0
 28 29  1  1  0  0  0
 28 32  1  0  0  0  0
 30 31  1  1  0  0  0
M  END
>  <CHROM.1>
-171.63001747,-161.23538077,-107.08327919,45.81403473,161.70951011,-149.11167023
17.77239982,26.84642422,33.77174228,-1.71439560,-0.16328729,-2.81171150

>  <Name>
ligand

>  <RI>
0

>  <Rbt.Current_Directory>
/home/itssahil/PROJECTS/Mol_Feturizer/New_Systems/rnas/4p3s

>  <Rbt.Executable>
rbdock ($Id: //depot/dev/client3/rdock/2013.1/src/exe/rbdock.cxx#4 $)

>  <Rbt.Library>
libRbt.so (2013.1, Build901 2013/11/27)

>  <Rbt.Parameter_File>
/export/apps/rDock/src/rDock_2013.1_src/data/scripts/dock_solv.prm

>  <Rbt.Receptor>
prm/pocket_docking_6.prm

>  <SCORE>
-19.4532

>  <SCORE.INTER>
-16.1809

>  <SCORE.INTER.CONST>
1

>  <SCORE.INTER.POLAR>
0

>  <SCORE.INTER.ROT>
6

>  <SCORE.INTER.SOLV>
16.7153

>  <SCORE.INTER.VDW>
-23.9591

>  <SCORE.INTER.norm>
-0.47591

>  <SCORE.INTRA>
-3.2723

>  <SCORE.INTRA.DIHEDRAL>
-6.76808

>  <SCORE.INTRA.DIHEDRAL.0>
15.8194

>  <SCORE.INTRA.POLAR>
0

>  <SCORE.INTRA.POLAR.0>
0

>  <SCORE.INTRA.REPUL>
0

>  <SCORE.INTRA.REPUL.0>
0

>  <SCORE.INTRA.SOLV>
-0.867766

>  <SCORE.INTRA.SOLV.lig_0>
-71.9159

>  <SCORE.INTRA.VDW>
0.545626

>  <SCORE.INTRA.VDW.0>
-3.53918

>  <SCORE.INTRA.norm>
-0.096244

>  <SCORE.RESTR>
0

>  <SCORE.RESTR.CAVITY>
0

>  <SCORE.RESTR.norm>
0

>  <SCORE.SYSTEM>
0

>  <SCORE.SYSTEM.CONST>
0

>  <SCORE.SYSTEM.DIHEDRAL>
0

>  <SCORE.SYSTEM.SOLV>
0

>  <SCORE.SYSTEM.norm>
0

>  <SCORE.heavy>
34

>  <SCORE.norm>
-0.572154

>  <RMSD>
9.473

$$$$
ligand
 OpenBabel01301917533D
libRbt.so/2013.1/901 2013/11/27
 34 36  0  0  0  0  0  0  0  0999 V2000
   21.3254   31.1809   31.1548 C   0  0  2  0  0  0  0  0  0  0  0  0
   20.2623   32.0889   30.8490 O   0  0  0  0  0  0  0  0  0  0  0  0
   22.1829   34.9310   28.2730 C   0  0  2  0  0  0  0  0  0  0  0  0
   22.4841   35.7970   27.1250 N   0  0  0  0  0  0  0  0  0  0  0  0
   20.5306   37.8871   28.6918 C   0  0  2  0  0  0  0  0  0  0  0  0
   20.7812   30.1220   32.1859 C   0  0  2  0  0  0  0  0  0  0  0  0
   19.6294   29.3929   31.6311 N   0  0  0  0  0  0  0  0  0  0  0  0
   22.0068   33.4656   27.7338 C   0  0  0  0  0  0  0  0  0  0  0  0
   20.0620   38.9653   29.7469 C   0  0  2  0  0  0  0  0  0  0  0  0
   21.1639   39.4087   30.5201 O   0  0  0  0  0  0  0  0  0  0  0  0
   20.3790   30.8248   33.5176 C   0  0  1  0  0  0  0  0  0  0  0  0
   19.8808   29.8604   34.4631 O   0  0  0  0  0  0  0  0  0  0  0  0
   21.7043   32.5384   28.9630 C   0  0  2  0  0  0  0  0  0  0  0  0
   21.5186   31.1261   28.5231 N   0  0  0  0  0  0  0  0  0  0  0  0
   18.9746   38.3035   30.6753 C   0  0  1  0  0  0  0  0  0  0  0  0
   18.5194   39.2522   31.7114 N   0  0  0  0  0  0  0  0  0  0  0  0
   21.6155   31.5748   34.0660 C   0  0  2  0  0  0  0  0  0  0  0  0
   21.2705   32.2181   35.2969 O   0  0  0  0  0  0  0  0  0  0  0  0
   20.4173   33.0061   29.7075 C   0  0  2  0  0  0  0  0  0  0  0  0
   17.7703   37.8389   29.7965 C   0  0  1  0  0  0  0  0  0  0  0  0
   17.2012   38.9846   29.1714 O   0  0  0  0  0  0  0  0  0  0  0  0
   22.1029   32.6233   32.9755 C   0  0  2  0  0  0  0  0  0  0  0  0
   22.4444   31.9399   31.7081 O   0  0  0  0  0  0  0  0  0  0  0  0
   20.6007   34.4781   30.1667 C   0  0  2  0  0  0  0  0  0  0  0  0
   19.3998   34.8906   30.8158 O   0  0  0  0  0  0  0  0  0  0  0  0
   18.2918   36.8430   28.7112 C   0  0  0  0  0  0  0  0  0  0  0  0
   19.3680   37.4518   27.8932 O   0  0  0  0  0  0  0  0  0  0  0  0
   23.3520   33.4290   33.4348 C   0  0  2  0  0  0  0  0  0  0  0  0
   23.0392   34.1387   34.6384 O   0  0  0  0  0  0  0  0  0  0  0  0
   20.8452   35.4292   28.9692 C   0  0  1  0  0  0  0  0  0  0  0  0
   21.0305   36.7716   29.4967 O   0  0  0  0  0  0  0  0  0  0  0  0
   23.7908   34.4417   32.4002 C   0  0  0  0  0  0  0  0  0  0  0  0
   16.6761   37.1650   30.6256 C   0  0  0  0  0  0  0  0  0  0  0  0
   19.4640   39.1526   32.8510 C   0  0  0  0  0  0  0  0  0  0  0  0
  1  2  1  1  0  0  0
  1  6  1  0  0  0  0
  1 23  1  0  0  0  0
  3  4  1  6  0  0  0
  3  8  1  0  0  0  0
  3 30  1  0  0  0  0
  5  9  1  0  0  0  0
  5 27  1  0  0  0  0
  5 31  1  1  0  0  0
  6  7  1  6  0  0  0
  6 11  1  0  0  0  0
  8 13  1  0  0  0  0
  9 10  1  1  0  0  0
  9 15  1  0  0  0  0
 11 12  1  1  0  0  0
 11 17  1  0  0  0  0
 13 14  1  6  0  0  0
 13 19  1  0  0  0  0
 15 16  1  1  0  0  0
 15 20  1  0  0  0  0
 16 34  1  0  0  0  0
 17 18  1  1  0  0  0
 17 22  1  0  0  0  0
 19  2  1  1  0  0  0
 19 24  1  0  0  0  0
 20 21  1  6  0  0  0
 20 26  1  0  0  0  0
 20 33  1  0  0  0  0
 22 23  1  6  0  0  0
 22 28  1  0  0  0  0
 24 25  1  6  0  0  0
 24 30  1  0  0  0  0
 26 27  1  0  0  0  0
 28 29  1  1  0  0  0
 28 32  1  0  0  0  0
 30 31  1  1  0  0  0
M  END
>  <CHROM.1>
-167.54295193,9.29181745,-85.79013555,-59.38969694,98.86153629,146.69837718
20.58146078,34.65981342,30.87422674,-0.57992711,1.23734003,-1.38064078

>  <Name>
ligand

>  <RI>
0

>  <Rbt.Current_Directory>
/home/itssahil/PROJECTS/Mol_Feturizer/New_Systems/rnas/4p3s

>  <Rbt.Executable>
rbdock ($Id: //depot/dev/client3/rdock/2013.1/src/exe/rbdock.cxx#4 $)

>  <Rbt.Library>
libRbt.so (2013.1, Build901 2013/11/27)

>  <Rbt.Parameter_File>
/export/apps/rDock/src/rDock_2013.1_src/data/scripts/dock_solv.prm

>  <Rbt.Receptor>
prm/blind_docking_100.prm

>  <SCORE>
6.20196

>  <SCORE.INTER>
-2.66111

>  <SCORE.INTER.CONST>
1

>  <SCORE.INTER.POLAR>
0

>  <SCORE.INTER.ROT>
6

>  <SCORE.INTER.SOLV>
17.149

>  <SCORE.INTER.VDW>
-15.0904

>  <SCORE.INTER.norm>
-0.078268

>  <SCORE.INTRA>
6.77069

>  <SCORE.INTRA.DIHEDRAL>
1.582

>  <SCORE.INTRA.DIHEDRAL.0>
15.8194

>  <SCORE.INTRA.POLAR>
0

>  <SCORE.INTRA.POLAR.0>
0

>  <SCORE.INTRA.REPUL>
0

>  <SCORE.INTRA.REPUL.0>
0

>  <SCORE.INTRA.SOLV>
1.54664

>  <SCORE.INTRA.SOLV.lig_0>
-71.9159

>  <SCORE.INTRA.VDW>
5.20637

>  <SCORE.INTRA.VDW.0>
-3.53918

>  <SCORE.INTRA.norm>
0.199138

>  <SCORE.RESTR>
2.09238

>  <SCORE.RESTR.CAVITY>
2.09238

>  <SCORE.RESTR.norm>
0.0615405

>  <SCORE.SYSTEM>
0

>  <SCORE.SYSTEM.CONST>
0

>  <SCORE.SYSTEM.DIHEDRAL>
0

>  <SCORE.SYSTEM.SOLV>
0

>  <SCORE.SYSTEM.norm>
0

>  <SCORE.heavy>
34

>  <SCORE.norm>
0.182411

>  <RMSD>
9.479

$$$$
ligand
 OpenBabel01301917533D
libRbt.so/2013.1/901 2013/11/27
 34 36  0  0  0  0  0  0  0  0999 V2000
   18.4179   29.4493   34.2737 C   0  0  2  0  0  0  0  0  0  0  0  0
   17.7659   28.5220   35.1474 O   0  0  0  0  0  0  0  0  0  0  0  0
   15.7111   24.7858   34.6782 C   0  0  2  0  0  0  0  0  0  0  0  0
   14.7425   23.7670   34.2509 N   0  0  0  0  0  0  0  0  0  0  0  0
   17.8201   24.2861   31.5123 C   0  0  2  0  0  0  0  0  0  0  0  0
   19.4976   30.2324   35.1113 C   0  0  2  0  0  0  0  0  0  0  0  0
   20.4791   29.3064   35.6990 N   0  0  0  0  0  0  0  0  0  0  0  0
   14.9038   25.9862   35.2917 C   0  0  0  0  0  0  0  0  0  0  0  0
   17.8526   22.8067   30.9596 C   0  0  2  0  0  0  0  0  0  0  0  0
   16.5441   22.2630   30.9310 O   0  0  0  0  0  0  0  0  0  0  0  0
   18.8080   31.0649   36.2340 C   0  0  1  0  0  0  0  0  0  0  0  0
   19.7915   31.7824   37.0023 O   0  0  0  0  0  0  0  0  0  0  0  0
   15.9400   27.0651   35.7654 C   0  0  2  0  0  0  0  0  0  0  0  0
   15.2408   28.2419   36.3560 N   0  0  0  0  0  0  0  0  0  0  0  0
   18.7792   21.9504   31.9032 C   0  0  1  0  0  0  0  0  0  0  0  0
   18.8236   20.5422   31.4604 N   0  0  0  0  0  0  0  0  0  0  0  0
   17.7894   32.0238   35.5743 C   0  0  2  0  0  0  0  0  0  0  0  0
   17.1527   32.8075   36.5884 O   0  0  0  0  0  0  0  0  0  0  0  0
   16.8204   27.5497   34.5740 C   0  0  2  0  0  0  0  0  0  0  0  0
   20.2142   22.5662   31.9022 C   0  0  1  0  0  0  0  0  0  0  0  0
   20.7296   22.5034   30.5764 O   0  0  0  0  0  0  0  0  0  0  0  0
   16.7351   31.1635   34.7530 C   0  0  2  0  0  0  0  0  0  0  0  0
   17.4140   30.3532   33.7173 O   0  0  0  0  0  0  0  0  0  0  0  0
   17.5503   26.3291   33.9503 C   0  0  2  0  0  0  0  0  0  0  0  0
   18.3225   26.7943   32.8453 O   0  0  0  0  0  0  0  0  0  0  0  0
   20.1252   24.0544   32.3699 C   0  0  0  0  0  0  0  0  0  0  0  0
   19.1915   24.8319   31.5203 O   0  0  0  0  0  0  0  0  0  0  0  0
   15.6652   32.0434   34.0449 C   0  0  2  0  0  0  0  0  0  0  0  0
   16.3101   33.1577   33.4184 O   0  0  0  0  0  0  0  0  0  0  0  0
   16.5525   25.2696   33.4211 C   0  0  1  0  0  0  0  0  0  0  0  0
   17.3238   24.1602   32.8835 O   0  0  0  0  0  0  0  0  0  0  0  0
   14.6394   32.5869   35.0150 C   0  0  0  0  0  0  0  0  0  0  0  0
   21.1726   21.7996   32.8146 C   0  0  0  0  0  0  0  0  0  0  0  0
   18.0312   19.7464   32.4297 C   0  0  0  0  0  0  0  0  0  0  0  0
  1  2  1  1  0  0  0
  1  6  1  0  0  0  0
  1 23  1  0  0  0  0
  3  4  1  6  0  0  0
  3  8  1  0  0  0  0
  3 30  1  0  0  0  0
  5  9  1  0  0  0  0
  5 27  1  0  0  0  0
  5 31  1  1  0  0  0
  6  7  1  1  0  0  0
  6 11  1  0  0  0  0
  8 13  1  0  0  0  0
  9 10  1  1  0  0  0
  9 15  1  0  0  0  0
 11 12  1  6  0  0  0
 11 17  1  0  0  0  0
 13 14  1  6  0  0  0
 13 19  1  0  0  0  0
 15 16  1  6  0  0  0
 15 20  1  0  0  0  0
 16 34  1  0  0  0  0
 17 18  1  1  0  0  0
 17 22  1  0  0  0  0
 19  2  1  1  0  0  0
 19 24  1  0  0  0  0
 20 21  1  6  0  0  0
 20 26  1  0  0  0  0
 20 33  1  0  0  0  0
 22 23  1  6  0  0  0
 22 28  1  0  0  0  0
 24 25  1  6  0  0  0
 24 30  1  0  0  0  0
 26 27  1  0  0  0  0
 28 29  1  1  0  0  0
 28 32  1  0  0  0  0
 30 31  1  1  0  0  0
M  END
>  <CHROM.1>
-172.75986711,-160.51925951,-107.09326250,44.55636053,161.27531450,-149.23893506
17.74433228,26.83689197,33.77774008,-1.71463964,-0.15711664,-2.80804488

>  <Name>
ligand

>  <RI>
0

>  <Rbt.Current_Directory>
/home/itssahil/PROJECTS/Mol_Feturizer/New_Systems/rnas/4p3s

>  <Rbt.Executable>
rbdock ($Id: //depot/dev/client3/rdock/2013.1/src/exe/rbdock.cxx#4 $)

>  <Rbt.Library>
libRbt.so (2013.1, Build901 2013/11/27)

>  <Rbt.Parameter_File>
/export/apps/rDock/src/rDock_2013.1_src/data/scripts/dock_solv.prm

>  <Rbt.Receptor>
prm/pocket_docking_7.prm

>  <SCORE>
-19.3948

>  <SCORE.INTER>
-16.199

>  <SCORE.INTER.CONST>
1

>  <SCORE.INTER.POLAR>
0

>  <SCORE.INTER.ROT>
6

>  <SCORE.INTER.SOLV>
16.7737

>  <SCORE.INTER.VDW>
-23.9906

>  <SCORE.INTER.norm>
-0.476442

>  <SCORE.INTRA>
-3.19579

>  <SCORE.INTRA.DIHEDRAL>
-6.57431

>  <SCORE.INTRA.DIHEDRAL.0>
15.8194

>  <SCORE.INTRA.POLAR>
0

>  <SCORE.INTRA.POLAR.0>
0

>  <SCORE.INTRA.REPUL>
0

>  <SCORE.INTRA.REPUL.0>
0

>  <SCORE.INTRA.SOLV>
-0.778111

>  <SCORE.INTRA.SOLV.lig_0>
-71.9159

>  <SCORE.INTRA.VDW>
0.480421

>  <SCORE.INTRA.VDW.0>
-3.53918

>  <SCORE.INTRA.norm>
-0.0939938

>  <SCORE.RESTR>
0

>  <SCORE.RESTR.CAVITY>
0

>  <SCORE.RESTR.norm>
0

>  <SCORE.SYSTEM>
0

>  <SCORE.SYSTEM.CONST>
0

>  <SCORE.SYSTEM.DIHEDRAL>
0

>  <SCORE.SYSTEM.SOLV>
0

>  <SCORE.SYSTEM.norm>
0

>  <SCORE.heavy>
34

>  <SCORE.norm>
-0.570435

>  <RMSD>
9.481

$$$$
ligand
 OpenBabel01301917533D
libRbt.so/2013.1/901 2013/11/27
 34 36  0  0  0  0  0  0  0  0999 V2000
   18.4553   29.3505   34.3180 C   0  0  2  0  0  0  0  0  0  0  0  0
   17.7837   28.4265   35.1801 O   0  0  0  0  0  0  0  0  0  0  0  0
   15.6836   24.7217   34.6646 C   0  0  2  0  0  0  0  0  0  0  0  0
   14.7041   23.7197   34.2229 N   0  0  0  0  0  0  0  0  0  0  0  0
   17.7640   24.2084   31.4890 C   0  0  2  0  0  0  0  0  0  0  0  0
   19.5131   30.1396   35.1777 C   0  0  2  0  0  0  0  0  0  0  0  0
   20.4814   29.2182   35.7937 N   0  0  0  0  0  0  0  0  0  0  0  0
   14.8888   25.9262   35.2864 C   0  0  0  0  0  0  0  0  0  0  0  0
   17.8327   22.7204   30.9630 C   0  0  2  0  0  0  0  0  0  0  0  0
   16.5414   22.1363   30.9686 O   0  0  0  0  0  0  0  0  0  0  0  0
   18.7950   30.9766   36.2791 C   0  0  1  0  0  0  0  0  0  0  0  0
   19.7584   31.6995   37.0676 O   0  0  0  0  0  0  0  0  0  0  0  0
   15.9365   26.9871   35.7754 C   0  0  2  0  0  0  0  0  0  0  0  0
   15.2497   28.1669   36.3745 N   0  0  0  0  0  0  0  0  0  0  0  0
   18.8022   21.9110   31.9049 C   0  0  1  0  0  0  0  0  0  0  0  0
   18.8824   20.4968   31.4874 N   0  0  0  0  0  0  0  0  0  0  0  0
   17.7913   31.9304   35.5900 C   0  0  2  0  0  0  0  0  0  0  0  0
   17.1288   32.7180   36.5844 O   0  0  0  0  0  0  0  0  0  0  0  0
   16.8285   27.4721   34.5928 C   0  0  2  0  0  0  0  0  0  0  0  0
   20.2171   22.5706   31.8660 C   0  0  1  0  0  0  0  0  0  0  0  0
   20.7104   22.4986   30.5323 O   0  0  0  0  0  0  0  0  0  0  0  0
   16.7587   31.0643   34.7475 C   0  0  2  0  0  0  0  0  0  0  0  0
   17.4638   30.2500   33.7328 O   0  0  0  0  0  0  0  0  0  0  0  0
   17.5457   26.2485   33.9605 C   0  0  2  0  0  0  0  0  0  0  0  0
   18.3290   26.7146   32.8636 O   0  0  0  0  0  0  0  0  0  0  0  0
   20.0903   24.0640   32.3079 C   0  0  0  0  0  0  0  0  0  0  0  0
   19.1178   24.7961   31.4616 O   0  0  0  0  0  0  0  0  0  0  0  0
   15.7049   31.9389   34.0093 C   0  0  2  0  0  0  0  0  0  0  0  0
   16.3617   33.0571   33.4023 O   0  0  0  0  0  0  0  0  0  0  0  0
   16.5370   25.2070   33.4163 C   0  0  1  0  0  0  0  0  0  0  0  0
   17.2966   24.0932   32.8711 O   0  0  0  0  0  0  0  0  0  0  0  0
   14.6485   32.4761   34.9495 C   0  0  0  0  0  0  0  0  0  0  0  0
   21.2151   21.8513   32.7746 C   0  0  0  0  0  0  0  0  0  0  0  0
   18.0912   19.7013   32.4579 C   0  0  0  0  0  0  0  0  0  0  0  0
  1  2  1  1  0  0  0
  1  6  1  0  0  0  0
  1 23  1  0  0  0  0
  3  4  1  6  0  0  0
  3  8  1  0  0  0  0
  3 30  1  0  0  0  0
  5  9  1  0  0  0  0
  5 27  1  0  0  0  0
  5 31  1  1  0  0  0
  6  7  1  1  0  0  0
  6 11  1  0  0  0  0
  8 13  1  0  0  0  0
  9 10  1  1  0  0  0
  9 15  1  0  0  0  0
 11 12  1  6  0  0  0
 11 17  1  0  0  0  0
 13 14  1  6  0  0  0
 13 19  1  0  0  0  0
 15 16  1  6  0  0  0
 15 20  1  0  0  0  0
 16 34  1  0  0  0  0
 17 18  1  1  0  0  0
 17 22  1  0  0  0  0
 19  2  1  1  0  0  0
 19 24  1  0  0  0  0
 20 21  1  6  0  0  0
 20 26  1  0  0  0  0
 20 33  1  0  0  0  0
 22 23  1  6  0  0  0
 22 28  1  0  0  0  0
 24 25  1  6  0  0  0
 24 30  1  0  0  0  0
 26 27  1  0  0  0  0
 28 29  1  1  0  0  0
 28 32  1  0  0  0  0
 30 31  1  1  0  0  0
M  END
>  <CHROM.1>
-174.27381032,-160.75251209,-105.05901806,44.08887664,159.35967345,-151.14421114
17.74578918,26.76808565,33.78043019,-1.71295643,-0.15649398,-2.80263582

>  <Name>
ligand

>  <RI>
0

>  <Rbt.Current_Directory>
/home/itssahil/PROJECTS/Mol_Feturizer/New_Systems/rnas/4p3s

>  <Rbt.Executable>
rbdock ($Id: //depot/dev/client3/rdock/2013.1/src/exe/rbdock.cxx#4 $)

>  <Rbt.Library>
libRbt.so (2013.1, Build901 2013/11/27)

>  <Rbt.Parameter_File>
/export/apps/rDock/src/rDock_2013.1_src/data/scripts/dock_solv.prm

>  <Rbt.Receptor>
prm/pocket_docking_6.prm

>  <SCORE>
-19.3509

>  <SCORE.INTER>
-16.1087

>  <SCORE.INTER.CONST>
1

>  <SCORE.INTER.POLAR>
0

>  <SCORE.INTER.ROT>
6

>  <SCORE.INTER.SOLV>
16.666

>  <SCORE.INTER.VDW>
-23.8945

>  <SCORE.INTER.norm>
-0.473787

>  <SCORE.INTRA>
-3.24218

>  <SCORE.INTRA.DIHEDRAL>
-6.7543

>  <SCORE.INTRA.DIHEDRAL.0>
15.8194

>  <SCORE.INTRA.POLAR>
0

>  <SCORE.INTRA.POLAR.0>
0

>  <SCORE.INTRA.REPUL>
0

>  <SCORE.INTRA.REPUL.0>
0

>  <SCORE.INTRA.SOLV>
-0.756324

>  <SCORE.INTRA.SOLV.lig_0>
-71.9159

>  <SCORE.INTRA.VDW>
0.513134

>  <SCORE.INTRA.VDW.0>
-3.53918

>  <SCORE.INTRA.norm>
-0.0953582

>  <SCORE.RESTR>
0

>  <SCORE.RESTR.CAVITY>
0

>  <SCORE.RESTR.norm>
0

>  <SCORE.SYSTEM>
0

>  <SCORE.SYSTEM.CONST>
0

>  <SCORE.SYSTEM.DIHEDRAL>
0

>  <SCORE.SYSTEM.SOLV>
0

>  <SCORE.SYSTEM.norm>
0

>  <SCORE.heavy>
34

>  <SCORE.norm>
-0.569145

>  <RMSD>
9.482

$$$$
ligand
 OpenBabel01301917533D
libRbt.so/2013.1/901 2013/11/27
 34 36  0  0  0  0  0  0  0  0999 V2000
   15.5300   26.0760   35.7231 C   0  0  2  0  0  0  0  0  0  0  0  0
   15.2632   26.0317   34.3178 O   0  0  0  0  0  0  0  0  0  0  0  0
   16.8486   22.1040   33.6387 C   0  0  2  0  0  0  0  0  0  0  0  0
   17.1612   20.8112   33.0144 N   0  0  0  0  0  0  0  0  0  0  0  0
   19.7095   23.6465   31.6666 C   0  0  2  0  0  0  0  0  0  0  0  0
   15.2482   27.5413   36.2274 C   0  0  2  0  0  0  0  0  0  0  0  0
   13.8543   27.9298   35.9589 N   0  0  0  0  0  0  0  0  0  0  0  0
   15.2854   22.2636   33.6519 C   0  0  0  0  0  0  0  0  0  0  0  0
   19.5026   22.5601   30.5386 C   0  0  2  0  0  0  0  0  0  0  0  0
   18.1309   22.4611   30.1963 O   0  0  0  0  0  0  0  0  0  0  0  0
   16.2250   28.5437   35.5417 C   0  0  1  0  0  0  0  0  0  0  0  0
   15.9708   29.8845   35.9997 O   0  0  0  0  0  0  0  0  0  0  0  0
   14.9519   23.6357   34.3362 C   0  0  2  0  0  0  0  0  0  0  0  0
   13.4784   23.8578   34.3783 N   0  0  0  0  0  0  0  0  0  0  0  0
   20.0304   21.1795   31.0840 C   0  0  1  0  0  0  0  0  0  0  0  0
   19.8316   20.1089   30.0864 N   0  0  0  0  0  0  0  0  0  0  0  0
   17.6744   28.1009   35.8506 C   0  0  2  0  0  0  0  0  0  0  0  0
   18.5887   29.0165   35.2393 O   0  0  0  0  0  0  0  0  0  0  0  0
   15.6162   24.8163   33.5653 C   0  0  2  0  0  0  0  0  0  0  0  0
   21.5448   21.3181   31.4385 C   0  0  1  0  0  0  0  0  0  0  0  0
   22.2573   21.6419   30.2491 O   0  0  0  0  0  0  0  0  0  0  0  0
   17.8826   26.6202   35.3116 C   0  0  2  0  0  0  0  0  0  0  0  0
   16.9216   25.6917   35.9475 O   0  0  0  0  0  0  0  0  0  0  0  0
   17.1518   24.5913   33.5138 C   0  0  2  0  0  0  0  0  0  0  0  0
   17.7308   25.6668   32.7776 O   0  0  0  0  0  0  0  0  0  0  0  0
   21.7146   22.4614   32.4899 C   0  0  0  0  0  0  0  0  0  0  0  0
   21.1456   23.7380   31.9952 O   0  0  0  0  0  0  0  0  0  0  0  0
   19.3167   26.0806   35.5806 C   0  0  2  0  0  0  0  0  0  0  0  0
   20.2236   26.6597   34.6360 O   0  0  0  0  0  0  0  0  0  0  0  0
   17.5170   23.2702   32.7929 C   0  0  1  0  0  0  0  0  0  0  0  0
   18.9646   23.1343   32.8176 O   0  0  0  0  0  0  0  0  0  0  0  0
   19.3972   24.5766   35.4384 C   0  0  0  0  0  0  0  0  0  0  0  0
   22.1289   20.0194   31.9962 C   0  0  0  0  0  0  0  0  0  0  0  0
   19.0737   19.0192   30.7490 C   0  0  0  0  0  0  0  0  0  0  0  0
  1  2  1  6  0  0  0
  1  6  1  0  0  0  0
  1 23  1  0  0  0  0
  3  4  1  6  0  0  0
  3  8  1  0  0  0  0
  3 30  1  0  0  0  0
  5  9  1  0  0  0  0
  5 27  1  0  0  0  0
  5 31  1  1  0  0  0
  6  7  1  6  0  0  0
  6 11  1  0  0  0  0
  8 13  1  0  0  0  0
  9 10  1  1  0  0  0
  9 15  1  0  0  0  0
 11 12  1  1  0  0  0
 11 17  1  0  0  0  0
 13 14  1  6  0  0  0
 13 19  1  0  0  0  0
 15 16  1  6  0  0  0
 15 20  1  0  0  0  0
 16 34  1  0  0  0  0
 17 18  1  6  0  0  0
 17 22  1  0  0  0  0
 19  2  1  1  0  0  0
 19 24  1  0  0  0  0
 20 21  1  6  0  0  0
 20 26  1  0  0  0  0
 20 33  1  0  0  0  0
 22 23  1  1  0  0  0
 22 28  1  0  0  0  0
 24 25  1  6  0  0  0
 24 30  1  0  0  0  0
 26 27  1  0  0  0  0
 28 29  1  6  0  0  0
 28 32  1  0  0  0  0
 30 31  1  1  0  0  0
M  END
>  <CHROM.1>
172.14363093,52.50374467,-125.71852909,-76.92697187,151.44387139,-76.84855278
18.03513110,24.28686231,33.47986244,2.08764340,0.19742148,0.49717101

>  <Name>
ligand

>  <RI>
0

>  <Rbt.Current_Directory>
/home/itssahil/PROJECTS/Mol_Feturizer/New_Systems/rnas/4p3s

>  <Rbt.Executable>
rbdock ($Id: //depot/dev/client3/rdock/2013.1/src/exe/rbdock.cxx#4 $)

>  <Rbt.Library>
libRbt.so (2013.1, Build901 2013/11/27)

>  <Rbt.Parameter_File>
/export/apps/rDock/src/rDock_2013.1_src/data/scripts/dock_solv.prm

>  <Rbt.Receptor>
prm/blind_docking_60.prm

>  <SCORE>
3.98187

>  <SCORE.INTER>
-4.91915

>  <SCORE.INTER.CONST>
1

>  <SCORE.INTER.POLAR>
0

>  <SCORE.INTER.ROT>
6

>  <SCORE.INTER.SOLV>
26.0516

>  <SCORE.INTER.VDW>
-19.5633

>  <SCORE.INTER.norm>
-0.144681

>  <SCORE.INTRA>
0.404534

>  <SCORE.INTRA.DIHEDRAL>
-8.42511

>  <SCORE.INTRA.DIHEDRAL.0>
15.8194

>  <SCORE.INTRA.POLAR>
0

>  <SCORE.INTRA.POLAR.0>
0

>  <SCORE.INTRA.REPUL>
0

>  <SCORE.INTRA.REPUL.0>
0

>  <SCORE.INTRA.SOLV>
2.68714

>  <SCORE.INTRA.SOLV.lig_0>
-71.9159

>  <SCORE.INTRA.VDW>
3.27352

>  <SCORE.INTRA.VDW.0>
-3.53918

>  <SCORE.INTRA.norm>
0.0118981

>  <SCORE.RESTR>
8.49648

>  <SCORE.RESTR.CAVITY>
8.49648

>  <SCORE.RESTR.norm>
0.249896

>  <SCORE.SYSTEM>
0

>  <SCORE.SYSTEM.CONST>
0

>  <SCORE.SYSTEM.DIHEDRAL>
0

>  <SCORE.SYSTEM.SOLV>
0

>  <SCORE.SYSTEM.norm>
0

>  <SCORE.heavy>
34

>  <SCORE.norm>
0.117114

>  <RMSD>
9.488

$$$$
ligand
 OpenBabel01301917533D
libRbt.so/2013.1/901 2013/11/27
 34 36  0  0  0  0  0  0  0  0999 V2000
   21.0342   31.1769   41.2470 C   0  0  2  0  0  0  0  0  0  0  0  0
   20.5450   32.5065   41.4498 O   0  0  0  0  0  0  0  0  0  0  0  0
   16.7216   34.1642   40.4322 C   0  0  2  0  0  0  0  0  0  0  0  0
   15.6171   34.7705   39.6765 N   0  0  0  0  0  0  0  0  0  0  0  0
   14.7143   32.0555   39.1607 C   0  0  2  0  0  0  0  0  0  0  0  0
   22.1625   30.9044   42.3116 C   0  0  2  0  0  0  0  0  0  0  0  0
   21.6407   31.0544   43.6795 N   0  0  0  0  0  0  0  0  0  0  0  0
   17.9817   35.0873   40.2617 C   0  0  0  0  0  0  0  0  0  0  0  0
   13.7186   30.8820   39.5167 C   0  0  2  0  0  0  0  0  0  0  0  0
   13.2833   30.9965   40.8605 O   0  0  0  0  0  0  0  0  0  0  0  0
   23.3609   31.8750   42.0863 C   0  0  1  0  0  0  0  0  0  0  0  0
   24.3947   31.6294   43.0575 O   0  0  0  0  0  0  0  0  0  0  0  0
   19.1552   34.4491   41.0849 C   0  0  2  0  0  0  0  0  0  0  0  0
   20.3915   35.2733   40.9636 N   0  0  0  0  0  0  0  0  0  0  0  0
   14.4732   29.5157   39.3016 C   0  0  1  0  0  0  0  0  0  0  0  0
   13.6051   28.3741   39.6536 N   0  0  0  0  0  0  0  0  0  0  0  0
   23.8788   31.6833   40.6416 C   0  0  2  0  0  0  0  0  0  0  0  0
   24.9890   32.5581   40.4175 O   0  0  0  0  0  0  0  0  0  0  0  0
   19.4628   33.0053   40.5848 C   0  0  2  0  0  0  0  0  0  0  0  0
   14.9269   29.4145   37.8109 C   0  0  1  0  0  0  0  0  0  0  0  0
   13.7668   29.4306   36.9855 O   0  0  0  0  0  0  0  0  0  0  0  0
   22.6897   31.9775   39.6288 C   0  0  2  0  0  0  0  0  0  0  0  0
   21.5485   31.0705   39.8836 O   0  0  0  0  0  0  0  0  0  0  0  0
   18.1789   32.1402   40.7047 C   0  0  2  0  0  0  0  0  0  0  0  0
   18.4783   30.8357   40.2123 O   0  0  0  0  0  0  0  0  0  0  0  0
   15.8368   30.6398   37.4758 C   0  0  0  0  0  0  0  0  0  0  0  0
   15.1422   31.9196   37.7545 O   0  0  0  0  0  0  0  0  0  0  0  0
   23.1128   31.8059   38.1416 C   0  0  2  0  0  0  0  0  0  0  0  0
   23.8324   30.5768   37.9946 O   0  0  0  0  0  0  0  0  0  0  0  0
   17.0164   32.7134   39.8571 C   0  0  1  0  0  0  0  0  0  0  0  0
   15.8575   31.8571   40.0528 O   0  0  0  0  0  0  0  0  0  0  0  0
   24.0110   32.9281   37.6699 C   0  0  0  0  0  0  0  0  0  0  0  0
   15.6878   28.1190   37.5252 C   0  0  0  0  0  0  0  0  0  0  0  0
   14.2844   27.6152   40.7322 C   0  0  0  0  0  0  0  0  0  0  0  0
  1  2  1  1  0  0  0
  1  6  1  0  0  0  0
  1 23  1  0  0  0  0
  3  4  1  6  0  0  0
  3  8  1  0  0  0  0
  3 30  1  0  0  0  0
  5  9  1  0  0  0  0
  5 27  1  0  0  0  0
  5 31  1  1  0  0  0
  6  7  1  1  0  0  0
  6 11  1  0  0  0  0
  8 13  1  0  0  0  0
  9 10  1  1  0  0  0
  9 15  1  0  0  0  0
 11 12  1  1  0  0  0
 11 17  1  0  0  0  0
 13 14  1  6  0  0  0
 13 19  1  0  0  0  0
 15 16  1  6  0  0  0
 15 20  1  0  0  0  0
 16 34  1  0  0  0  0
 17 18  1  6  0  0  0
 17 22  1  0  0  0  0
 19  2  1  1  0  0  0
 19 24  1  0  0  0  0
 20 21  1  6  0  0  0
 20 26  1  0  0  0  0
 20 33  1  0  0  0  0
 22 23  1  1  0  0  0
 22 28  1  0  0  0  0
 24 25  1  6  0  0  0
 24 30  1  0  0  0  0
 26 27  1  0  0  0  0
 28 29  1  1  0  0  0
 28 32  1  0  0  0  0
 30 31  1  1  0  0  0
M  END
>  <CHROM.1>
-179.26659981,178.86915585,-120.83225754,46.79860003,75.75313964,173.56766313
18.70609712,31.59066661,39.95091982,-0.25176036,0.09567472,-2.74738368

>  <Name>
ligand

>  <RI>
0

>  <Rbt.Current_Directory>
/home/itssahil/PROJECTS/Mol_Feturizer/New_Systems/rnas/4p3s

>  <Rbt.Executable>
rbdock ($Id: //depot/dev/client3/rdock/2013.1/src/exe/rbdock.cxx#4 $)

>  <Rbt.Library>
libRbt.so (2013.1, Build901 2013/11/27)

>  <Rbt.Parameter_File>
/export/apps/rDock/src/rDock_2013.1_src/data/scripts/dock_solv.prm

>  <Rbt.Receptor>
prm/pocket_docking_8.prm

>  <SCORE>
-8.42565

>  <SCORE.INTER>
-2.647

>  <SCORE.INTER.CONST>
1

>  <SCORE.INTER.POLAR>
0

>  <SCORE.INTER.ROT>
6

>  <SCORE.INTER.SOLV>
12.3404

>  <SCORE.INTER.VDW>
-13.4781

>  <SCORE.INTER.norm>
-0.077853

>  <SCORE.INTRA>
-5.77865

>  <SCORE.INTRA.DIHEDRAL>
-12.5619

>  <SCORE.INTRA.DIHEDRAL.0>
15.8194

>  <SCORE.INTRA.POLAR>
0

>  <SCORE.INTRA.POLAR.0>
0

>  <SCORE.INTRA.REPUL>
0

>  <SCORE.INTRA.REPUL.0>
0

>  <SCORE.INTRA.SOLV>
-0.734562

>  <SCORE.INTRA.SOLV.lig_0>
-71.9159

>  <SCORE.INTRA.VDW>
0.869592

>  <SCORE.INTRA.VDW.0>
-3.53918

>  <SCORE.INTRA.norm>
-0.16996

>  <SCORE.RESTR>
0

>  <SCORE.RESTR.CAVITY>
0

>  <SCORE.RESTR.norm>
0

>  <SCORE.SYSTEM>
0

>  <SCORE.SYSTEM.CONST>
0

>  <SCORE.SYSTEM.DIHEDRAL>
0

>  <SCORE.SYSTEM.SOLV>
0

>  <SCORE.SYSTEM.norm>
0

>  <SCORE.heavy>
34

>  <SCORE.norm>
-0.247813

>  <RMSD>
9.505

$$$$
ligand
 OpenBabel01301917533D
libRbt.so/2013.1/901 2013/11/27
 34 36  0  0  0  0  0  0  0  0999 V2000
   16.0394   25.7189   35.4932 C   0  0  2  0  0  0  0  0  0  0  0  0
   15.7383   25.4820   34.1143 O   0  0  0  0  0  0  0  0  0  0  0  0
   17.4278   21.5444   33.9083 C   0  0  2  0  0  0  0  0  0  0  0  0
   17.8041   20.2080   33.4276 N   0  0  0  0  0  0  0  0  0  0  0  0
   20.4045   23.3220   32.2220 C   0  0  2  0  0  0  0  0  0  0  0  0
   15.5703   27.1792   35.8512 C   0  0  2  0  0  0  0  0  0  0  0  0
   14.1281   27.3418   35.6074 N   0  0  0  0  0  0  0  0  0  0  0  0
   15.8655   21.6707   33.7968 C   0  0  0  0  0  0  0  0  0  0  0  0
   19.9543   22.8445   30.7851 C   0  0  2  0  0  0  0  0  0  0  0  0
   18.5891   23.1571   30.5678 O   0  0  0  0  0  0  0  0  0  0  0  0
   16.3751   28.2224   35.0187 C   0  0  1  0  0  0  0  0  0  0  0  0
   15.9493   29.5588   35.3428 O   0  0  0  0  0  0  0  0  0  0  0  0
   15.4628   23.0911   34.3285 C   0  0  2  0  0  0  0  0  0  0  0  0
   13.9869   23.2842   34.2463 N   0  0  0  0  0  0  0  0  0  0  0  0
   20.1796   21.2879   30.6921 C   0  0  1  0  0  0  0  0  0  0  0  0
   19.7424   20.7704   29.3799 N   0  0  0  0  0  0  0  0  0  0  0  0
   17.8811   28.0184   35.3059 C   0  0  2  0  0  0  0  0  0  0  0  0
   18.6386   28.9759   34.5594 O   0  0  0  0  0  0  0  0  0  0  0  0
   16.1630   24.2120   33.5021 C   0  0  2  0  0  0  0  0  0  0  0  0
   21.6927   20.9785   30.9220 C   0  0  1  0  0  0  0  0  0  0  0  0
   22.4430   21.6111   29.8904 O   0  0  0  0  0  0  0  0  0  0  0  0
   18.2785   26.5291   34.9184 C   0  0  2  0  0  0  0  0  0  0  0  0
   17.4774   25.5552   35.6930 O   0  0  0  0  0  0  0  0  0  0  0  0
   17.7016   24.0165   33.5795 C   0  0  2  0  0  0  0  0  0  0  0  0
   18.3157   25.0340   32.7912 O   0  0  0  0  0  0  0  0  0  0  0  0
   22.1180   21.5449   32.3147 C   0  0  0  0  0  0  0  0  0  0  0  0
   21.8307   22.9958   32.4174 O   0  0  0  0  0  0  0  0  0  0  0  0
   19.7818   26.2232   35.1770 C   0  0  2  0  0  0  0  0  0  0  0  0
   20.0975   24.9299   34.6499 O   0  0  0  0  0  0  0  0  0  0  0  0
   18.1377   22.6444   33.0091 C   0  0  1  0  0  0  0  0  0  0  0  0
   19.5816   22.5425   33.1479 O   0  0  0  0  0  0  0  0  0  0  0  0
   20.1181   26.2174   36.6520 C   0  0  0  0  0  0  0  0  0  0  0  0
   21.9909   19.4795   30.8667 C   0  0  0  0  0  0  0  0  0  0  0  0
   18.3067   20.4159   29.4979 C   0  0  0  0  0  0  0  0  0  0  0  0
  1  2  1  6  0  0  0
  1  6  1  0  0  0  0
  1 23  1  0  0  0  0
  3  4  1  6  0  0  0
  3  8  1  0  0  0  0
  3 30  1  0  0  0  0
  5  9  1  0  0  0  0
  5 27  1  0  0  0  0
  5 31  1  1  0  0  0
  6  7  1  6  0  0  0
  6 11  1  0  0  0  0
  8 13  1  0  0  0  0
  9 10  1  1  0  0  0
  9 15  1  0  0  0  0
 11 12  1  1  0  0  0
 11 17  1  0  0  0  0
 13 14  1  6  0  0  0
 13 19  1  0  0  0  0
 15 16  1  6  0  0  0
 15 20  1  0  0  0  0
 16 34  1  0  0  0  0
 17 18  1  6  0  0  0
 17 22  1  0  0  0  0
 19  2  1  1  0  0  0
 19 24  1  0  0  0  0
 20 21  1  6  0  0  0
 20 26  1  0  0  0  0
 20 33  1  0  0  0  0
 22 23  1  1  0  0  0
 22 28  1  0  0  0  0
 24 25  1  6  0  0  0
 24 30  1  0  0  0  0
 26 27  1  0  0  0  0
 28 29  1  1  0  0  0
 28 32  1  0  0  0  0
 30 31  1  1  0  0  0
M  END
>  <CHROM.1>
175.89349511,59.51680453,-89.11594008,-172.75656065,169.80747972,-57.14583648
18.38063701,24.03984190,33.33164878,2.08574161,0.21225927,0.50782877

>  <Name>
ligand

>  <RI>
0

>  <Rbt.Current_Directory>
/home/itssahil/PROJECTS/Mol_Feturizer/New_Systems/rnas/4p3s

>  <Rbt.Executable>
rbdock ($Id: //depot/dev/client3/rdock/2013.1/src/exe/rbdock.cxx#4 $)

>  <Rbt.Library>
libRbt.so (2013.1, Build901 2013/11/27)

>  <Rbt.Parameter_File>
/export/apps/rDock/src/rDock_2013.1_src/data/scripts/dock_solv.prm

>  <Rbt.Receptor>
prm/blind_docking_60.prm

>  <SCORE>
-0.412865

>  <SCORE.INTER>
-7.91642

>  <SCORE.INTER.CONST>
1

>  <SCORE.INTER.POLAR>
0

>  <SCORE.INTER.ROT>
6

>  <SCORE.INTER.SOLV>
23.7276

>  <SCORE.INTER.VDW>
-20.7868

>  <SCORE.INTER.norm>
-0.232836

>  <SCORE.INTRA>
-0.303385

>  <SCORE.INTRA.DIHEDRAL>
-14.3106

>  <SCORE.INTRA.DIHEDRAL.0>
15.8194

>  <SCORE.INTRA.POLAR>
0

>  <SCORE.INTRA.POLAR.0>
0

>  <SCORE.INTRA.REPUL>
0

>  <SCORE.INTRA.REPUL.0>
0

>  <SCORE.INTRA.SOLV>
2.2247

>  <SCORE.INTRA.SOLV.lig_0>
-71.9159

>  <SCORE.INTRA.VDW>
5.73956

>  <SCORE.INTRA.VDW.0>
-3.53918

>  <SCORE.INTRA.norm>
-0.00892309

>  <SCORE.RESTR>
7.80694

>  <SCORE.RESTR.CAVITY>
7.80694

>  <SCORE.RESTR.norm>
0.229616

>  <SCORE.SYSTEM>
0

>  <SCORE.SYSTEM.CONST>
0

>  <SCORE.SYSTEM.DIHEDRAL>
0

>  <SCORE.SYSTEM.SOLV>
0

>  <SCORE.SYSTEM.norm>
0

>  <SCORE.heavy>
34

>  <SCORE.norm>
-0.0121431

>  <RMSD>
9.511

$$$$
ligand
 OpenBabel01301917533D
libRbt.so/2013.1/901 2013/11/27
 34 36  0  0  0  0  0  0  0  0999 V2000
   15.9827   34.1723   37.6575 C   0  0  2  0  0  0  0  0  0  0  0  0
   15.8310   34.3399   36.2443 O   0  0  0  0  0  0  0  0  0  0  0  0
   17.1444   31.8984   32.9707 C   0  0  2  0  0  0  0  0  0  0  0  0
   17.9931   31.2591   31.9561 N   0  0  0  0  0  0  0  0  0  0  0  0
   17.8204   29.3462   35.7901 C   0  0  2  0  0  0  0  0  0  0  0  0
   14.9704   35.1422   38.3754 C   0  0  2  0  0  0  0  0  0  0  0  0
   13.5860   34.8488   37.9711 N   0  0  0  0  0  0  0  0  0  0  0  0
   17.3242   33.4535   32.8344 C   0  0  0  0  0  0  0  0  0  0  0  0
   18.5351   28.0118   35.3383 C   0  0  2  0  0  0  0  0  0  0  0  0
   19.6766   28.3068   34.5519 O   0  0  0  0  0  0  0  0  0  0  0  0
   15.3212   36.6249   38.0476 C   0  0  1  0  0  0  0  0  0  0  0  0
   14.3981   37.5151   38.7017 O   0  0  0  0  0  0  0  0  0  0  0  0
   16.4026   34.1358   33.9055 C   0  0  2  0  0  0  0  0  0  0  0  0
   16.5274   35.6198   33.8377 N   0  0  0  0  0  0  0  0  0  0  0  0
   17.5037   27.1600   34.5059 C   0  0  1  0  0  0  0  0  0  0  0  0
   18.1234   25.9104   34.0208 N   0  0  0  0  0  0  0  0  0  0  0  0
   16.7794   36.8903   38.4896 C   0  0  2  0  0  0  0  0  0  0  0  0
   17.1182   38.2519   38.2082 O   0  0  0  0  0  0  0  0  0  0  0  0
   16.7798   33.6651   35.3428 C   0  0  2  0  0  0  0  0  0  0  0  0
   16.2663   26.8408   35.4031 C   0  0  1  0  0  0  0  0  0  0  0  0
   16.7048   26.0677   36.5155 O   0  0  0  0  0  0  0  0  0  0  0  0
   17.7378   35.8798   37.7238 C   0  0  2  0  0  0  0  0  0  0  0  0
   17.3647   34.4785   38.0194 O   0  0  0  0  0  0  0  0  0  0  0  0
   16.6557   32.1192   35.4217 C   0  0  2  0  0  0  0  0  0  0  0  0
   17.0357   31.7126   36.7347 O   0  0  0  0  0  0  0  0  0  0  0  0
   15.6429   28.1846   35.9002 C   0  0  0  0  0  0  0  0  0  0  0  0
   16.6439   29.0113   36.6162 O   0  0  0  0  0  0  0  0  0  0  0  0
   19.2341   36.0660   38.1067 C   0  0  2  0  0  0  0  0  0  0  0  0
   19.6422   37.3991   37.7805 O   0  0  0  0  0  0  0  0  0  0  0  0
   17.5962   31.4133   34.4140 C   0  0  1  0  0  0  0  0  0  0  0  0
   17.3915   29.9794   34.5422 O   0  0  0  0  0  0  0  0  0  0  0  0
   20.1380   35.1090   37.3611 C   0  0  0  0  0  0  0  0  0  0  0  0
   15.2056   26.0298   34.6574 C   0  0  0  0  0  0  0  0  0  0  0  0
   18.2470   26.0188   32.5464 C   0  0  0  0  0  0  0  0  0  0  0  0
  1  2  1  6  0  0  0
  1  6  1  0  0  0  0
  1 23  1  0  0  0  0
  3  4  1  6  0  0  0
  3  8  1  0  0  0  0
  3 30  1  0  0  0  0
  5  9  1  0  0  0  0
  5 27  1  0  0  0  0
  5 31  1  6  0  0  0
  6  7  1  6  0  0  0
  6 11  1  0  0  0  0
  8 13  1  0  0  0  0
  9 10  1  6  0  0  0
  9 15  1  0  0  0  0
 11 12  1  1  0  0  0
 11 17  1  0  0  0  0
 13 14  1  1  0  0  0
 13 19  1  0  0  0  0
 15 16  1  1  0  0  0
 15 20  1  0  0  0  0
 16 34  1  0  0  0  0
 17 18  1  6  0  0  0
 17 22  1  0  0  0  0
 19  2  1  1  0  0  0
 19 24  1  0  0  0  0
 20 21  1  1  0  0  0
 20 26  1  0  0  0  0
 20 33  1  0  0  0  0
 22 23  1  1  0  0  0
 22 28  1  0  0  0  0
 24 25  1  1  0  0  0
 24 30  1  0  0  0  0
 26 27  1  0  0  0  0
 28 29  1  6  0  0  0
 28 32  1  0  0  0  0
 30 31  1  6  0  0  0
M  END
>  <CHROM.1>
172.61269284,-175.91610459,-111.33411089,-59.87129049,176.90157407,-136.91095598
17.05335623,32.14269530,35.92176267,1.65943836,0.82304201,0.26592202

>  <Name>
ligand

>  <RI>
0

>  <Rbt.Current_Directory>
/home/itssahil/PROJECTS/Mol_Feturizer/New_Systems/rnas/4p3s

>  <Rbt.Executable>
rbdock ($Id: //depot/dev/client3/rdock/2013.1/src/exe/rbdock.cxx#4 $)

>  <Rbt.Library>
libRbt.so (2013.1, Build901 2013/11/27)

>  <Rbt.Parameter_File>
/export/apps/rDock/src/rDock_2013.1_src/data/scripts/dock_solv.prm

>  <Rbt.Receptor>
prm/pocket_docking_8.prm

>  <SCORE>
-9.04166

>  <SCORE.INTER>
-5.09927

>  <SCORE.INTER.CONST>
1

>  <SCORE.INTER.POLAR>
0

>  <SCORE.INTER.ROT>
6

>  <SCORE.INTER.SOLV>
14.2783

>  <SCORE.INTER.VDW>
-15.7589

>  <SCORE.INTER.norm>
-0.149978

>  <SCORE.INTRA>
-3.9443

>  <SCORE.INTRA.DIHEDRAL>
-8.33003

>  <SCORE.INTRA.DIHEDRAL.0>
15.8194

>  <SCORE.INTRA.POLAR>
0

>  <SCORE.INTRA.POLAR.0>
0

>  <SCORE.INTRA.REPUL>
0

>  <SCORE.INTRA.REPUL.0>
0

>  <SCORE.INTRA.SOLV>
-1.86634

>  <SCORE.INTRA.SOLV.lig_0>
-71.9159

>  <SCORE.INTRA.VDW>
1.15389

>  <SCORE.INTRA.VDW.0>
-3.53918

>  <SCORE.INTRA.norm>
-0.116009

>  <SCORE.RESTR>
0.00190972

>  <SCORE.RESTR.CAVITY>
0.00190972

>  <SCORE.RESTR.norm>
5.61684e-05

>  <SCORE.SYSTEM>
0

>  <SCORE.SYSTEM.CONST>
0

>  <SCORE.SYSTEM.DIHEDRAL>
0

>  <SCORE.SYSTEM.SOLV>
0

>  <SCORE.SYSTEM.norm>
0

>  <SCORE.heavy>
34

>  <SCORE.norm>
-0.265931

>  <RMSD>
9.513

$$$$
ligand
 OpenBabel01301917533D
libRbt.so/2013.1/901 2013/11/27
 34 36  0  0  0  0  0  0  0  0999 V2000
   16.0228   25.7208   35.5271 C   0  0  2  0  0  0  0  0  0  0  0  0
   15.7148   25.4837   34.1497 O   0  0  0  0  0  0  0  0  0  0  0  0
   17.4148   21.5510   33.9334 C   0  0  2  0  0  0  0  0  0  0  0  0
   17.7895   20.2146   33.4517 N   0  0  0  0  0  0  0  0  0  0  0  0
   20.3645   23.3270   32.2002 C   0  0  2  0  0  0  0  0  0  0  0  0
   15.5668   27.1855   35.8839 C   0  0  2  0  0  0  0  0  0  0  0  0
   14.1251   27.3593   35.6449 N   0  0  0  0  0  0  0  0  0  0  0  0
   15.8508   21.6720   33.8409 C   0  0  0  0  0  0  0  0  0  0  0  0
   19.9203   22.8116   30.7746 C   0  0  2  0  0  0  0  0  0  0  0  0
   18.5499   23.0972   30.5530 O   0  0  0  0  0  0  0  0  0  0  0  0
   16.3770   28.2206   35.0464 C   0  0  1  0  0  0  0  0  0  0  0  0
   15.9632   29.5610   35.3694 O   0  0  0  0  0  0  0  0  0  0  0  0
   15.4500   23.0924   34.3737 C   0  0  2  0  0  0  0  0  0  0  0  0
   13.9726   23.2805   34.3093 N   0  0  0  0  0  0  0  0  0  0  0  0
   20.1708   21.2573   30.7144 C   0  0  1  0  0  0  0  0  0  0  0  0
   19.7403   20.7048   29.4143 N   0  0  0  0  0  0  0  0  0  0  0  0
   17.8823   28.0050   35.3286 C   0  0  2  0  0  0  0  0  0  0  0  0
   18.6448   28.9550   34.5775 O   0  0  0  0  0  0  0  0  0  0  0  0
   16.1362   24.2133   33.5358 C   0  0  2  0  0  0  0  0  0  0  0  0
   21.6891   20.9775   30.9483 C   0  0  1  0  0  0  0  0  0  0  0  0
   22.4276   21.6000   29.9022 O   0  0  0  0  0  0  0  0  0  0  0  0
   18.2663   26.5118   34.9427 C   0  0  2  0  0  0  0  0  0  0  0  0
   17.4602   25.5459   35.7220 O   0  0  0  0  0  0  0  0  0  0  0  0
   17.6763   24.0232   33.5947 C   0  0  2  0  0  0  0  0  0  0  0  0
   18.2772   25.0405   32.7961 O   0  0  0  0  0  0  0  0  0  0  0  0
   22.1070   21.5804   32.3279 C   0  0  0  0  0  0  0  0  0  0  0  0
   21.7962   23.0283   32.4002 O   0  0  0  0  0  0  0  0  0  0  0  0
   19.7680   26.1943   35.1965 C   0  0  2  0  0  0  0  0  0  0  0  0
   20.0717   24.8980   34.6696 O   0  0  0  0  0  0  0  0  0  0  0  0
   18.1098   22.6509   33.0227 C   0  0  1  0  0  0  0  0  0  0  0  0
   19.5557   22.5541   33.1439 O   0  0  0  0  0  0  0  0  0  0  0  0
   20.1093   26.1873   36.6703 C   0  0  0  0  0  0  0  0  0  0  0  0
   22.0116   19.4827   30.9246 C   0  0  0  0  0  0  0  0  0  0  0  0
   18.2935   20.3946   29.5203 C   0  0  0  0  0  0  0  0  0  0  0  0
  1  2  1  6  0  0  0
  1  6  1  0  0  0  0
  1 23  1  0  0  0  0
  3  4  1  6  0  0  0
  3  8  1  0  0  0  0
  3 30  1  0  0  0  0
  5  9  1  0  0  0  0
  5 27  1  0  0  0  0
  5 31  1  1  0  0  0
  6  7  1  6  0  0  0
  6 11  1  0  0  0  0
  8 13  1  0  0  0  0
  9 10  1  1  0  0  0
  9 15  1  0  0  0  0
 11 12  1  1  0  0  0
 11 17  1  0  0  0  0
 13 14  1  6  0  0  0
 13 19  1  0  0  0  0
 15 16  1  6  0  0  0
 15 20  1  0  0  0  0
 16 34  1  0  0  0  0
 17 18  1  6  0  0  0
 17 22  1  0  0  0  0
 19  2  1  1  0  0  0
 19 24  1  0  0  0  0
 20 21  1  6  0  0  0
 20 26  1  0  0  0  0
 20 33  1  0  0  0  0
 22 23  1  1  0  0  0
 22 28  1  0  0  0  0
 24 25  1  6  0  0  0
 24 30  1  0  0  0  0
 26 27  1  0  0  0  0
 28 29  1  1  0  0  0
 28 32  1  0  0  0  0
 30 31  1  1  0  0  0
M  END
>  <CHROM.1>
175.43011763,59.02562337,-86.24969486,-172.70064652,169.41619994,-58.36559851
18.36593128,24.03306619,33.35290345,2.08551627,0.21606343,0.50783286

>  <Name>
ligand

>  <RI>
0

>  <Rbt.Current_Directory>
/home/itssahil/PROJECTS/Mol_Feturizer/New_Systems/rnas/4p3s

>  <Rbt.Executable>
rbdock ($Id: //depot/dev/client3/rdock/2013.1/src/exe/rbdock.cxx#4 $)

>  <Rbt.Library>
libRbt.so (2013.1, Build901 2013/11/27)

>  <Rbt.Parameter_File>
/export/apps/rDock/src/rDock_2013.1_src/data/scripts/dock_solv.prm

>  <Rbt.Receptor>
prm/blind_docking_60.prm

>  <SCORE>
-0.498078

>  <SCORE.INTER>
-7.96341

>  <SCORE.INTER.CONST>
1

>  <SCORE.INTER.POLAR>
0

>  <SCORE.INTER.ROT>
6

>  <SCORE.INTER.SOLV>
23.7315

>  <SCORE.INTER.VDW>
-20.8195

>  <SCORE.INTER.norm>
-0.234218

>  <SCORE.INTRA>
-0.358377

>  <SCORE.INTRA.DIHEDRAL>
-14.363

>  <SCORE.INTRA.DIHEDRAL.0>
15.8194

>  <SCORE.INTRA.POLAR>
0

>  <SCORE.INTRA.POLAR.0>
0

>  <SCORE.INTRA.REPUL>
0

>  <SCORE.INTRA.REPUL.0>
0

>  <SCORE.INTRA.SOLV>
2.22073

>  <SCORE.INTRA.SOLV.lig_0>
-71.9159

>  <SCORE.INTRA.VDW>
5.71274

>  <SCORE.INTRA.VDW.0>
-3.53918

>  <SCORE.INTRA.norm>
-0.0105405

>  <SCORE.RESTR>
7.82371

>  <SCORE.RESTR.CAVITY>
7.82371

>  <SCORE.RESTR.norm>
0.230109

>  <SCORE.SYSTEM>
0

>  <SCORE.SYSTEM.CONST>
0

>  <SCORE.SYSTEM.DIHEDRAL>
0

>  <SCORE.SYSTEM.SOLV>
0

>  <SCORE.SYSTEM.norm>
0

>  <SCORE.heavy>
34

>  <SCORE.norm>
-0.0146494

>  <RMSD>
9.514

$$$$
ligand
 OpenBabel01301917533D
libRbt.so/2013.1/901 2013/11/27
 34 36  0  0  0  0  0  0  0  0999 V2000
   21.8552   31.7771   30.9077 C   0  0  2  0  0  0  0  0  0  0  0  0
   20.6392   32.4187   30.5104 O   0  0  0  0  0  0  0  0  0  0  0  0
   22.3631   35.3689   27.9168 C   0  0  2  0  0  0  0  0  0  0  0  0
   22.5494   36.3287   26.8202 N   0  0  0  0  0  0  0  0  0  0  0  0
   21.0257   38.3746   28.9407 C   0  0  2  0  0  0  0  0  0  0  0  0
   21.4815   30.4317   31.6365 C   0  0  2  0  0  0  0  0  0  0  0  0
   20.7053   29.5516   30.7483 N   0  0  0  0  0  0  0  0  0  0  0  0
   21.9641   33.9880   27.2817 C   0  0  0  0  0  0  0  0  0  0  0  0
   21.3637   39.4908   30.0061 C   0  0  2  0  0  0  0  0  0  0  0  0
   22.7669   39.6531   30.1208 O   0  0  0  0  0  0  0  0  0  0  0  0
   20.6729   30.7297   32.9351 C   0  0  1  0  0  0  0  0  0  0  0  0
   20.3291   29.5025   33.6045 O   0  0  0  0  0  0  0  0  0  0  0  0
   21.7843   32.9588   28.4524 C   0  0  2  0  0  0  0  0  0  0  0  0
   21.3974   31.6207   27.9213 N   0  0  0  0  0  0  0  0  0  0  0  0
   20.7498   39.0514   31.3890 C   0  0  1  0  0  0  0  0  0  0  0  0
   21.0628   40.0391   32.4413 N   0  0  0  0  0  0  0  0  0  0  0  0
   21.5238   31.6528   33.8384 C   0  0  2  0  0  0  0  0  0  0  0  0
   20.8034   31.9293   35.0437 O   0  0  0  0  0  0  0  0  0  0  0  0
   20.6878   33.4395   29.4504 C   0  0  2  0  0  0  0  0  0  0  0  0
   19.2041   38.8948   31.2326 C   0  0  1  0  0  0  0  0  0  0  0  0
   18.6581   40.1593   30.8716 O   0  0  0  0  0  0  0  0  0  0  0  0
   21.8570   32.9852   33.0385 C   0  0  2  0  0  0  0  0  0  0  0  0
   22.5921   32.6772   31.7916 O   0  0  0  0  0  0  0  0  0  0  0  0
   21.0813   34.8350   30.0064 C   0  0  2  0  0  0  0  0  0  0  0  0
   20.0483   35.2648   30.8908 O   0  0  0  0  0  0  0  0  0  0  0  0
   18.9137   37.8483   30.1092 C   0  0  0  0  0  0  0  0  0  0  0  0
   19.5603   38.2345   28.8321 O   0  0  0  0  0  0  0  0  0  0  0  0
   22.7184   33.9818   33.8664 C   0  0  2  0  0  0  0  0  0  0  0  0
   23.8978   33.3146   34.3290 O   0  0  0  0  0  0  0  0  0  0  0  0
   21.2116   35.8888   28.8791 C   0  0  1  0  0  0  0  0  0  0  0  0
   21.6061   37.1483   29.4897 O   0  0  0  0  0  0  0  0  0  0  0  0
   21.9785   34.5079   35.0765 C   0  0  0  0  0  0  0  0  0  0  0  0
   18.5339   38.4487   32.5328 C   0  0  0  0  0  0  0  0  0  0  0  0
   20.7504   41.3831   31.8964 C   0  0  0  0  0  0  0  0  0  0  0  0
  1  2  1  1  0  0  0
  1  6  1  0  0  0  0
  1 23  1  0  0  0  0
  3  4  1  6  0  0  0
  3  8  1  0  0  0  0
  3 30  1  0  0  0  0
  5  9  1  0  0  0  0
  5 27  1  0  0  0  0
  5 31  1  1  0  0  0
  6  7  1  6  0  0  0
  6 11  1  0  0  0  0
  8 13  1  0  0  0  0
  9 10  1  1  0  0  0
  9 15  1  0  0  0  0
 11 12  1  1  0  0  0
 11 17  1  0  0  0  0
 13 14  1  6  0  0  0
 13 19  1  0  0  0  0
 15 16  1  1  0  0  0
 15 20  1  0  0  0  0
 16 34  1  0  0  0  0
 17 18  1  1  0  0  0
 17 22  1  0  0  0  0
 19  2  1  1  0  0  0
 19 24  1  0  0  0  0
 20 21  1  6  0  0  0
 20 26  1  0  0  0  0
 20 33  1  0  0  0  0
 22 23  1  6  0  0  0
 22 28  1  0  0  0  0
 24 25  1  1  0  0  0
 24 30  1  0  0  0  0
 26 27  1  0  0  0  0
 28 29  1  1  0  0  0
 28 32  1  0  0  0  0
 30 31  1  1  0  0  0
M  END
>  <CHROM.1>
-160.22293491,35.23046745,47.71594948,54.38001816,102.27380558,166.90586966
21.12001620,35.13596609,31.00634768,-0.58136426,1.43283808,-1.22146108

>  <Name>
ligand

>  <RI>
0

>  <Rbt.Current_Directory>
/home/itssahil/PROJECTS/Mol_Feturizer/New_Systems/rnas/4p3s

>  <Rbt.Executable>
rbdock ($Id: //depot/dev/client3/rdock/2013.1/src/exe/rbdock.cxx#4 $)

>  <Rbt.Library>
libRbt.so (2013.1, Build901 2013/11/27)

>  <Rbt.Parameter_File>
/export/apps/rDock/src/rDock_2013.1_src/data/scripts/dock_solv.prm

>  <Rbt.Receptor>
prm/blind_docking_100.prm

>  <SCORE>
12.3616

>  <SCORE.INTER>
0.993736

>  <SCORE.INTER.CONST>
1

>  <SCORE.INTER.POLAR>
0

>  <SCORE.INTER.ROT>
6

>  <SCORE.INTER.SOLV>
16.7674

>  <SCORE.INTER.VDW>
-12.5266

>  <SCORE.INTER.norm>
0.0292275

>  <SCORE.INTRA>
7.30949

>  <SCORE.INTRA.DIHEDRAL>
-4.63521

>  <SCORE.INTRA.DIHEDRAL.0>
15.8194

>  <SCORE.INTRA.POLAR>
0

>  <SCORE.INTRA.POLAR.0>
0

>  <SCORE.INTRA.REPUL>
0

>  <SCORE.INTRA.REPUL.0>
0

>  <SCORE.INTRA.SOLV>
1.50434

>  <SCORE.INTRA.SOLV.lig_0>
-71.9159

>  <SCORE.INTRA.VDW>
8.87493

>  <SCORE.INTRA.VDW.0>
-3.53918

>  <SCORE.INTRA.norm>
0.214985

>  <SCORE.RESTR>
4.0584

>  <SCORE.RESTR.CAVITY>
4.0584

>  <SCORE.RESTR.norm>
0.119365

>  <SCORE.SYSTEM>
0

>  <SCORE.SYSTEM.CONST>
0

>  <SCORE.SYSTEM.DIHEDRAL>
0

>  <SCORE.SYSTEM.SOLV>
0

>  <SCORE.SYSTEM.norm>
0

>  <SCORE.heavy>
34

>  <SCORE.norm>
0.363577

>  <RMSD>
9.554

$$$$
ligand
 OpenBabel01301917533D
libRbt.so/2013.1/901 2013/11/27
 34 36  0  0  0  0  0  0  0  0999 V2000
   15.8618   26.9473   34.9636 C   0  0  2  0  0  0  0  0  0  0  0  0
   16.2120   25.5614   34.8945 O   0  0  0  0  0  0  0  0  0  0  0  0
   17.0013   22.4546   32.0437 C   0  0  2  0  0  0  0  0  0  0  0  0
   17.1180   21.7126   30.7809 N   0  0  0  0  0  0  0  0  0  0  0  0
   20.1614   23.1642   33.2072 C   0  0  2  0  0  0  0  0  0  0  0  0
   17.1078   27.7893   34.4955 C   0  0  2  0  0  0  0  0  0  0  0  0
   17.4997   27.4285   33.1235 N   0  0  0  0  0  0  0  0  0  0  0  0
   15.5241   22.9786   32.1560 C   0  0  0  0  0  0  0  0  0  0  0  0
   21.4818   22.3745   32.8491 C   0  0  2  0  0  0  0  0  0  0  0  0
   22.2137   23.0659   31.8517 O   0  0  0  0  0  0  0  0  0  0  0  0
   18.3039   27.5679   35.4698 C   0  0  1  0  0  0  0  0  0  0  0  0
   19.4453   28.3357   35.0455 O   0  0  0  0  0  0  0  0  0  0  0  0
   15.3953   23.7543   33.5140 C   0  0  2  0  0  0  0  0  0  0  0  0
   14.0139   24.2877   33.6858 N   0  0  0  0  0  0  0  0  0  0  0  0
   21.0731   20.9431   32.3330 C   0  0  1  0  0  0  0  0  0  0  0  0
   22.2657   20.1631   31.9454 N   0  0  0  0  0  0  0  0  0  0  0  0
   17.8507   27.9604   36.8955 C   0  0  2  0  0  0  0  0  0  0  0  0
   18.9399   27.7757   37.8053 O   0  0  0  0  0  0  0  0  0  0  0  0
   16.4033   24.9417   33.5725 C   0  0  2  0  0  0  0  0  0  0  0  0
   20.2817   20.2037   33.4579 C   0  0  1  0  0  0  0  0  0  0  0  0
   21.1371   20.0554   34.5865 O   0  0  0  0  0  0  0  0  0  0  0  0
   16.5970   27.0698   37.2969 C   0  0  2  0  0  0  0  0  0  0  0  0
   15.4865   27.2671   36.3389 O   0  0  0  0  0  0  0  0  0  0  0  0
   17.8455   24.3953   33.3910 C   0  0  2  0  0  0  0  0  0  0  0  0
   18.7434   25.5029   33.4169 O   0  0  0  0  0  0  0  0  0  0  0  0
   19.0334   21.0606   33.8438 C   0  0  0  0  0  0  0  0  0  0  0  0
   19.4254   22.4300   34.2551 O   0  0  0  0  0  0  0  0  0  0  0  0
   16.0620   27.3953   38.7211 C   0  0  2  0  0  0  0  0  0  0  0  0
   15.3467   26.2625   39.2266 O   0  0  0  0  0  0  0  0  0  0  0  0
   18.0211   23.6720   32.0330 C   0  0  1  0  0  0  0  0  0  0  0  0
   19.3862   23.1752   31.9658 O   0  0  0  0  0  0  0  0  0  0  0  0
   15.1177   28.5772   38.7204 C   0  0  0  0  0  0  0  0  0  0  0  0
   19.8302   18.8081   33.0251 C   0  0  0  0  0  0  0  0  0  0  0  0
   22.5889   20.5141   30.5407 C   0  0  0  0  0  0  0  0  0  0  0  0
  1  2  1  1  0  0  0
  1  6  1  0  0  0  0
  1 23  1  0  0  0  0
  3  4  1  6  0  0  0
  3  8  1  0  0  0  0
  3 30  1  0  0  0  0
  5  9  1  0  0  0  0
  5 27  1  0  0  0  0
  5 31  1  6  0  0  0
  6  7  1  6  0  0  0
  6 11  1  0  0  0  0
  8 13  1  0  0  0  0
  9 10  1  6  0  0  0
  9 15  1  0  0  0  0
 11 12  1  6  0  0  0
 11 17  1  0  0  0  0
 13 14  1  6  0  0  0
 13 19  1  0  0  0  0
 15 16  1  1  0  0  0
 15 20  1  0  0  0  0
 16 34  1  0  0  0  0
 17 18  1  1  0  0  0
 17 22  1  0  0  0  0
 19  2  1  1  0  0  0
 19 24  1  0  0  0  0
 20 21  1  1  0  0  0
 20 26  1  0  0  0  0
 20 33  1  0  0  0  0
 22 23  1  6  0  0  0
 22 28  1  0  0  0  0
 24 25  1  6  0  0  0
 24 30  1  0  0  0  0
 26 27  1  0  0  0  0
 28 29  1  6  0  0  0
 28 32  1  0  0  0  0
 30 31  1  1  0  0  0
M  END
>  <CHROM.1>
-69.31697588,-122.32312495,-85.62348213,-156.58735416,-101.86372401,171.40087365
18.22625441,24.29418981,34.18963161,2.06919821,-0.13852817,0.69045075

>  <Name>
ligand

>  <RI>
0

>  <Rbt.Current_Directory>
/home/itssahil/PROJECTS/Mol_Feturizer/New_Systems/rnas/4p3s

>  <Rbt.Executable>
rbdock ($Id: //depot/dev/client3/rdock/2013.1/src/exe/rbdock.cxx#4 $)

>  <Rbt.Library>
libRbt.so (2013.1, Build901 2013/11/27)

>  <Rbt.Parameter_File>
/export/apps/rDock/src/rDock_2013.1_src/data/scripts/dock_solv.prm

>  <Rbt.Receptor>
prm/blind_docking_60.prm

>  <SCORE>
13.1595

>  <SCORE.INTER>
-6.37529

>  <SCORE.INTER.CONST>
1

>  <SCORE.INTER.POLAR>
0

>  <SCORE.INTER.ROT>
6

>  <SCORE.INTER.SOLV>
22.5343

>  <SCORE.INTER.VDW>
-19.3616

>  <SCORE.INTER.norm>
-0.187509

>  <SCORE.INTRA>
9.78719

>  <SCORE.INTRA.DIHEDRAL>
0.0954795

>  <SCORE.INTRA.DIHEDRAL.0>
15.8194

>  <SCORE.INTRA.POLAR>
0

>  <SCORE.INTRA.POLAR.0>
0

>  <SCORE.INTRA.REPUL>
0

>  <SCORE.INTRA.REPUL.0>
0

>  <SCORE.INTRA.SOLV>
3.11291

>  <SCORE.INTRA.SOLV.lig_0>
-71.9159

>  <SCORE.INTRA.VDW>
8.183

>  <SCORE.INTRA.VDW.0>
-3.53918

>  <SCORE.INTRA.norm>
0.287859

>  <SCORE.RESTR>
9.74759

>  <SCORE.RESTR.CAVITY>
9.74759

>  <SCORE.RESTR.norm>
0.286694

>  <SCORE.SYSTEM>
0

>  <SCORE.SYSTEM.CONST>
0

>  <SCORE.SYSTEM.DIHEDRAL>
0

>  <SCORE.SYSTEM.SOLV>
0

>  <SCORE.SYSTEM.norm>
0

>  <SCORE.heavy>
34

>  <SCORE.norm>
0.387044

>  <RMSD>
9.598

$$$$
ligand
 OpenBabel01301917533D
libRbt.so/2013.1/901 2013/11/27
 34 36  0  0  0  0  0  0  0  0999 V2000
   18.2454   27.8908   36.9527 C   0  0  2  0  0  0  0  0  0  0  0  0
   18.4153   26.6153   36.3263 O   0  0  0  0  0  0  0  0  0  0  0  0
   15.8081   24.2166   33.9074 C   0  0  2  0  0  0  0  0  0  0  0  0
   14.8586   23.7970   32.8677 N   0  0  0  0  0  0  0  0  0  0  0  0
   18.5607   23.7668   31.3461 C   0  0  2  0  0  0  0  0  0  0  0  0
   18.9827   28.9688   36.0724 C   0  0  2  0  0  0  0  0  0  0  0  0
   18.4366   28.9932   34.7059 N   0  0  0  0  0  0  0  0  0  0  0  0
   15.1732   25.4337   34.6722 C   0  0  0  0  0  0  0  0  0  0  0  0
   18.6214   22.3789   30.5942 C   0  0  2  0  0  0  0  0  0  0  0  0
   17.3192   21.9660   30.2171 O   0  0  0  0  0  0  0  0  0  0  0  0
   20.5129   28.6760   36.0323 C   0  0  1  0  0  0  0  0  0  0  0  0
   21.1909   29.6590   35.2284 O   0  0  0  0  0  0  0  0  0  0  0  0
   16.1795   25.8687   35.7949 C   0  0  2  0  0  0  0  0  0  0  0  0
   15.6424   27.0290   36.5615 N   0  0  0  0  0  0  0  0  0  0  0  0
   19.2694   21.3218   31.5663 C   0  0  1  0  0  0  0  0  0  0  0  0
   19.3223   19.9883   30.9339 N   0  0  0  0  0  0  0  0  0  0  0  0
   21.0450   28.6618   37.4845 C   0  0  2  0  0  0  0  0  0  0  0  0
   22.4530   28.4062   37.4695 O   0  0  0  0  0  0  0  0  0  0  0  0
   17.5567   26.2654   35.1823 C   0  0  2  0  0  0  0  0  0  0  0  0
   20.7056   21.7984   31.9514 C   0  0  1  0  0  0  0  0  0  0  0  0
   21.4895   21.8686   30.7649 O   0  0  0  0  0  0  0  0  0  0  0  0
   20.2586   27.5518   38.3064 C   0  0  2  0  0  0  0  0  0  0  0  0
   18.8047   27.8282   38.3010 O   0  0  0  0  0  0  0  0  0  0  0  0
   18.1224   25.0629   34.3788 C   0  0  2  0  0  0  0  0  0  0  0  0
   19.3650   25.4619   33.8040 O   0  0  0  0  0  0  0  0  0  0  0  0
   20.6088   23.2116   32.6110 C   0  0  0  0  0  0  0  0  0  0  0  0
   19.9289   24.1788   31.7164 O   0  0  0  0  0  0  0  0  0  0  0  0
   20.7219   27.4630   39.7889 C   0  0  2  0  0  0  0  0  0  0  0  0
   19.9806   26.4343   40.4540 O   0  0  0  0  0  0  0  0  0  0  0  0
   17.1771   24.6446   33.2256 C   0  0  1  0  0  0  0  0  0  0  0  0
   17.7743   23.5026   32.5519 O   0  0  0  0  0  0  0  0  0  0  0  0
   20.4926   28.7574   40.5376 C   0  0  0  0  0  0  0  0  0  0  0  0
   21.3969   20.8311   32.9135 C   0  0  0  0  0  0  0  0  0  0  0  0
   18.2798   19.1504   31.5757 C   0  0  0  0  0  0  0  0  0  0  0  0
  1  2  1  6  0  0  0
  1  6  1  0  0  0  0
  1 23  1  0  0  0  0
  3  4  1  6  0  0  0
  3  8  1  0  0  0  0
  3 30  1  0  0  0  0
  5  9  1  0  0  0  0
  5 27  1  0  0  0  0
  5 31  1  1  0  0  0
  6  7  1  6  0  0  0
  6 11  1  0  0  0  0
  8 13  1  0  0  0  0
  9 10  1  1  0  0  0
  9 15  1  0  0  0  0
 11 12  1  6  0  0  0
 11 17  1  0  0  0  0
 13 14  1  6  0  0  0
 13 19  1  0  0  0  0
 15 16  1  6  0  0  0
 15 20  1  0  0  0  0
 16 34  1  0  0  0  0
 17 18  1  6  0  0  0
 17 22  1  0  0  0  0
 19  2  1  1  0  0  0
 19 24  1  0  0  0  0
 20 21  1  6  0  0  0
 20 26  1  0  0  0  0
 20 33  1  0  0  0  0
 22 23  1  1  0  0  0
 22 28  1  0  0  0  0
 24 25  1  6  0  0  0
 24 30  1  0  0  0  0
 26 27  1  0  0  0  0
 28 29  1  1  0  0  0
 28 32  1  0  0  0  0
 30 31  1  1  0  0  0
M  END
>  <CHROM.1>
-79.74653561,-77.63885290,-106.29856117,-179.31486695,148.09626488,-160.50114084
18.94179589,25.21982591,34.61566027,1.46528081,-0.10513352,0.78300250

>  <Name>
ligand

>  <RI>
0

>  <Rbt.Current_Directory>
/home/itssahil/PROJECTS/Mol_Feturizer/New_Systems/rnas/4p3s

>  <Rbt.Executable>
rbdock ($Id: //depot/dev/client3/rdock/2013.1/src/exe/rbdock.cxx#4 $)

>  <Rbt.Library>
libRbt.so (2013.1, Build901 2013/11/27)

>  <Rbt.Parameter_File>
/export/apps/rDock/src/rDock_2013.1_src/data/scripts/dock_solv.prm

>  <Rbt.Receptor>
prm/pocket_docking_8.prm

>  <SCORE>
-10.8524

>  <SCORE.INTER>
-10.4639

>  <SCORE.INTER.CONST>
1

>  <SCORE.INTER.POLAR>
0

>  <SCORE.INTER.ROT>
6

>  <SCORE.INTER.SOLV>
15.8611

>  <SCORE.INTER.VDW>
-19.8629

>  <SCORE.INTER.norm>
-0.30776

>  <SCORE.INTRA>
-0.388564

>  <SCORE.INTRA.DIHEDRAL>
-5.8727

>  <SCORE.INTRA.DIHEDRAL.0>
15.8194

>  <SCORE.INTRA.POLAR>
0

>  <SCORE.INTRA.POLAR.0>
0

>  <SCORE.INTRA.REPUL>
0

>  <SCORE.INTRA.REPUL.0>
0

>  <SCORE.INTRA.SOLV>
1.82243

>  <SCORE.INTRA.SOLV.lig_0>
-71.9159

>  <SCORE.INTRA.VDW>
1.63657

>  <SCORE.INTRA.VDW.0>
-3.53918

>  <SCORE.INTRA.norm>
-0.0114284

>  <SCORE.RESTR>
0

>  <SCORE.RESTR.CAVITY>
0

>  <SCORE.RESTR.norm>
0

>  <SCORE.SYSTEM>
0

>  <SCORE.SYSTEM.CONST>
0

>  <SCORE.SYSTEM.DIHEDRAL>
0

>  <SCORE.SYSTEM.SOLV>
0

>  <SCORE.SYSTEM.norm>
0

>  <SCORE.heavy>
34

>  <SCORE.norm>
-0.319189

>  <RMSD>
9.635

$$$$
ligand
 OpenBabel01301917533D
libRbt.so/2013.1/901 2013/11/27
 34 36  0  0  0  0  0  0  0  0999 V2000
   15.5280   25.9355   34.0286 C   0  0  2  0  0  0  0  0  0  0  0  0
   15.7909   24.6837   34.6705 O   0  0  0  0  0  0  0  0  0  0  0  0
   16.5940   20.5709   33.7529 C   0  0  2  0  0  0  0  0  0  0  0  0
   16.7951   19.3167   33.0144 N   0  0  0  0  0  0  0  0  0  0  0  0
   19.6454   20.0480   32.9297 C   0  0  2  0  0  0  0  0  0  0  0  0
   16.8903   26.4912   33.4664 C   0  0  2  0  0  0  0  0  0  0  0  0
   17.4903   25.5437   32.5133 N   0  0  0  0  0  0  0  0  0  0  0  0
   15.1872   21.1432   33.3500 C   0  0  0  0  0  0  0  0  0  0  0  0
   21.1504   20.5009   32.7705 C   0  0  2  0  0  0  0  0  0  0  0  0
   21.7978   20.5093   34.0312 O   0  0  0  0  0  0  0  0  0  0  0  0
   17.8806   26.7730   34.6364 C   0  0  1  0  0  0  0  0  0  0  0  0
   19.1274   27.2809   34.1269 O   0  0  0  0  0  0  0  0  0  0  0  0
   14.9651   22.4725   34.1538 C   0  0  2  0  0  0  0  0  0  0  0  0
   13.6453   23.0773   33.8152 N   0  0  0  0  0  0  0  0  0  0  0  0
   21.1644   21.9446   32.1398 C   0  0  1  0  0  0  0  0  0  0  0  0
   22.5472   22.4433   31.9976 N   0  0  0  0  0  0  0  0  0  0  0  0
   17.2132   27.7721   35.6102 C   0  0  2  0  0  0  0  0  0  0  0  0
   18.1121   28.0543   36.6874 O   0  0  0  0  0  0  0  0  0  0  0  0
   16.0877   23.5064   33.8373 C   0  0  2  0  0  0  0  0  0  0  0  0
   20.4572   21.8987   30.7484 C   0  0  1  0  0  0  0  0  0  0  0  0
   21.1910   21.0221   29.8996 O   0  0  0  0  0  0  0  0  0  0  0  0
   15.8517   27.1425   36.1354 C   0  0  2  0  0  0  0  0  0  0  0  0
   14.9410   26.8486   35.0065 O   0  0  0  0  0  0  0  0  0  0  0  0
   17.4671   22.8831   34.1842 C   0  0  2  0  0  0  0  0  0  0  0  0
   18.4765   23.8356   33.8565 O   0  0  0  0  0  0  0  0  0  0  0  0
   19.0021   21.3620   30.9391 C   0  0  0  0  0  0  0  0  0  0  0  0
   18.9988   20.0363   31.6028 O   0  0  0  0  0  0  0  0  0  0  0  0
   15.0996   28.0797   37.1235 C   0  0  2  0  0  0  0  0  0  0  0  0
   15.0180   29.3929   36.5586 O   0  0  0  0  0  0  0  0  0  0  0  0
   17.7414   21.5981   33.3646 C   0  0  1  0  0  0  0  0  0  0  0  0
   19.0350   21.0754   33.7745 O   0  0  0  0  0  0  0  0  0  0  0  0
   15.8075   28.1915   38.4558 C   0  0  0  0  0  0  0  0  0  0  0  0
   20.4120   23.2722   30.0774 C   0  0  0  0  0  0  0  0  0  0  0  0
   23.3528   21.3535   31.3941 C   0  0  0  0  0  0  0  0  0  0  0  0
  1  2  1  1  0  0  0
  1  6  1  0  0  0  0
  1 23  1  0  0  0  0
  3  4  1  6  0  0  0
  3  8  1  0  0  0  0
  3 30  1  0  0  0  0
  5  9  1  0  0  0  0
  5 27  1  0  0  0  0
  5 31  1  1  0  0  0
  6  7  1  6  0  0  0
  6 11  1  0  0  0  0
  8 13  1  0  0  0  0
  9 10  1  1  0  0  0
  9 15  1  0  0  0  0
 11 12  1  6  0  0  0
 11 17  1  0  0  0  0
 13 14  1  6  0  0  0
 13 19  1  0  0  0  0
 15 16  1  6  0  0  0
 15 20  1  0  0  0  0
 16 34  1  0  0  0  0
 17 18  1  1  0  0  0
 17 22  1  0  0  0  0
 19  2  1  1  0  0  0
 19 24  1  0  0  0  0
 20 21  1  6  0  0  0
 20 26  1  0  0  0  0
 20 33  1  0  0  0  0
 22 23  1  6  0  0  0
 22 28  1  0  0  0  0
 24 25  1  6  0  0  0
 24 30  1  0  0  0  0
 26 27  1  0  0  0  0
 28 29  1  6  0  0  0
 28 32  1  0  0  0  0
 30 31  1  1  0  0  0
M  END
>  <CHROM.1>
-72.97655467,-118.98101515,46.62906880,48.98032486,78.33048611,134.24374130
17.98521147,23.73406920,33.67665473,2.13696304,0.29965809,0.37929672

>  <Name>
ligand

>  <RI>
0

>  <Rbt.Current_Directory>
/home/itssahil/PROJECTS/Mol_Feturizer/New_Systems/rnas/4p3s

>  <Rbt.Executable>
rbdock ($Id: //depot/dev/client3/rdock/2013.1/src/exe/rbdock.cxx#4 $)

>  <Rbt.Library>
libRbt.so (2013.1, Build901 2013/11/27)

>  <Rbt.Parameter_File>
/export/apps/rDock/src/rDock_2013.1_src/data/scripts/dock_solv.prm

>  <Rbt.Receptor>
prm/blind_docking_60.prm

>  <SCORE>
15.884

>  <SCORE.INTER>
-6.79657

>  <SCORE.INTER.CONST>
1

>  <SCORE.INTER.POLAR>
0

>  <SCORE.INTER.ROT>
6

>  <SCORE.INTER.SOLV>
19.2827

>  <SCORE.INTER.VDW>
-18.5586

>  <SCORE.INTER.norm>
-0.199899

>  <SCORE.INTRA>
13.8398

>  <SCORE.INTRA.DIHEDRAL>
0.546299

>  <SCORE.INTRA.DIHEDRAL.0>
15.8194

>  <SCORE.INTRA.POLAR>
0

>  <SCORE.INTRA.POLAR.0>
0

>  <SCORE.INTRA.REPUL>
0

>  <SCORE.INTRA.REPUL.0>
0

>  <SCORE.INTRA.SOLV>
4.82499

>  <SCORE.INTRA.SOLV.lig_0>
-71.9159

>  <SCORE.INTRA.VDW>
11.1541

>  <SCORE.INTRA.VDW.0>
-3.53918

>  <SCORE.INTRA.norm>
0.407052

>  <SCORE.RESTR>
8.84082

>  <SCORE.RESTR.CAVITY>
8.84082

>  <SCORE.RESTR.norm>
0.260024

>  <SCORE.SYSTEM>
0

>  <SCORE.SYSTEM.CONST>
0

>  <SCORE.SYSTEM.DIHEDRAL>
0

>  <SCORE.SYSTEM.SOLV>
0

>  <SCORE.SYSTEM.norm>
0

>  <SCORE.heavy>
34

>  <SCORE.norm>
0.467177

>  <RMSD>
9.778

$$$$
ligand
 OpenBabel01301917533D
libRbt.so/2013.1/901 2013/11/27
 34 36  0  0  0  0  0  0  0  0999 V2000
   22.1599   32.1580   30.1711 C   0  0  2  0  0  0  0  0  0  0  0  0
   20.9351   32.8171   29.8341 O   0  0  0  0  0  0  0  0  0  0  0  0
   22.6775   36.5091   28.5167 C   0  0  2  0  0  0  0  0  0  0  0  0
   22.8748   37.8003   27.8441 N   0  0  0  0  0  0  0  0  0  0  0  0
   21.5180   39.0021   30.3856 C   0  0  2  0  0  0  0  0  0  0  0  0
   21.8044   30.7513   30.7840 C   0  0  2  0  0  0  0  0  0  0  0  0
   21.0341   29.9412   29.8268 N   0  0  0  0  0  0  0  0  0  0  0  0
   22.3056   35.4490   27.4180 C   0  0  0  0  0  0  0  0  0  0  0  0
   20.6838   39.4137   31.6623 C   0  0  2  0  0  0  0  0  0  0  0  0
   21.4859   39.3169   32.8267 O   0  0  0  0  0  0  0  0  0  0  0  0
   20.9982   30.9284   32.1061 C   0  0  1  0  0  0  0  0  0  0  0  0
   20.6710   29.6448   32.6697 O   0  0  0  0  0  0  0  0  0  0  0  0
   22.1141   34.0664   28.1348 C   0  0  2  0  0  0  0  0  0  0  0  0
   21.7517   33.0087   27.1487 N   0  0  0  0  0  0  0  0  0  0  0  0
   19.4442   38.4473   31.7713 C   0  0  1  0  0  0  0  0  0  0  0  0
   18.6393   38.7570   32.9701 N   0  0  0  0  0  0  0  0  0  0  0  0
   21.8427   31.7810   33.0818 C   0  0  2  0  0  0  0  0  0  0  0  0
   21.1246   31.9456   34.3087 O   0  0  0  0  0  0  0  0  0  0  0  0
   20.9933   34.1517   29.2147 C   0  0  2  0  0  0  0  0  0  0  0  0
   18.5751   38.5875   30.4816 C   0  0  1  0  0  0  0  0  0  0  0  0
   18.1032   39.9284   30.4008 O   0  0  0  0  0  0  0  0  0  0  0  0
   22.1576   33.1803   32.3971 C   0  0  2  0  0  0  0  0  0  0  0  0
   22.8906   32.9880   31.1260 O   0  0  0  0  0  0  0  0  0  0  0  0
   21.3612   35.2539   30.2449 C   0  0  2  0  0  0  0  0  0  0  0  0
   20.3068   35.3329   31.2018 O   0  0  0  0  0  0  0  0  0  0  0  0
   19.4611   38.2581   29.2374 C   0  0  0  0  0  0  0  0  0  0  0  0
   20.6641   39.1232   29.1877 O   0  0  0  0  0  0  0  0  0  0  0  0
   23.0114   34.1126   33.3039 C   0  0  2  0  0  0  0  0  0  0  0  0
   24.3510   33.6111   33.3676 O   0  0  0  0  0  0  0  0  0  0  0  0
   21.5021   36.6437   29.5763 C   0  0  1  0  0  0  0  0  0  0  0  0
   21.8714   37.5994   30.6083 O   0  0  0  0  0  0  0  0  0  0  0  0
   22.4751   34.1831   34.7167 C   0  0  0  0  0  0  0  0  0  0  0  0
   17.3575   37.6623   30.5019 C   0  0  0  0  0  0  0  0  0  0  0  0
   18.4924   40.2316   33.0379 C   0  0  0  0  0  0  0  0  0  0  0  0
  1  2  1  1  0  0  0
  1  6  1  0  0  0  0
  1 23  1  0  0  0  0
  3  4  1  6  0  0  0
  3  8  1  0  0  0  0
  3 30  1  0  0  0  0
  5  9  1  0  0  0  0
  5 27  1  0  0  0  0
  5 31  1  1  0  0  0
  6  7  1  6  0  0  0
  6 11  1  0  0  0  0
  8 13  1  0  0  0  0
  9 10  1  1  0  0  0
  9 15  1  0  0  0  0
 11 12  1  1  0  0  0
 11 17  1  0  0  0  0
 13 14  1  6  0  0  0
 13 19  1  0  0  0  0
 15 16  1  1  0  0  0
 15 20  1  0  0  0  0
 16 34  1  0  0  0  0
 17 18  1  1  0  0  0
 17 22  1  0  0  0  0
 19  2  1  1  0  0  0
 19 24  1  0  0  0  0
 20 21  1  6  0  0  0
 20 26  1  0  0  0  0
 20 33  1  0  0  0  0
 22 23  1  6  0  0  0
 22 28  1  0  0  0  0
 24 25  1  1  0  0  0
 24 30  1  0  0  0  0
 26 27  1  0  0  0  0
 28 29  1  1  0  0  0
 28 32  1  0  0  0  0
 30 31  1  1  0  0  0
M  END
>  <CHROM.1>
-178.86461207,43.86998109,44.54019838,72.00426080,90.08360308,125.09858066
21.09849122,35.38190128,30.92731177,-0.54522164,1.24976789,-1.11130779

>  <Name>
ligand

>  <RI>
0

>  <Rbt.Current_Directory>
/home/itssahil/PROJECTS/Mol_Feturizer/New_Systems/rnas/4p3s

>  <Rbt.Executable>
rbdock ($Id: //depot/dev/client3/rdock/2013.1/src/exe/rbdock.cxx#4 $)

>  <Rbt.Library>
libRbt.so (2013.1, Build901 2013/11/27)

>  <Rbt.Parameter_File>
/export/apps/rDock/src/rDock_2013.1_src/data/scripts/dock_solv.prm

>  <Rbt.Receptor>
prm/blind_docking_60.prm

>  <SCORE>
26.7051

>  <SCORE.INTER>
3.56087

>  <SCORE.INTER.CONST>
1

>  <SCORE.INTER.POLAR>
0

>  <SCORE.INTER.ROT>
6

>  <SCORE.INTER.SOLV>
19.3726

>  <SCORE.INTER.VDW>
-11.6836

>  <SCORE.INTER.norm>
0.104732

>  <SCORE.INTRA>
14.7102

>  <SCORE.INTRA.DIHEDRAL>
-3.19839

>  <SCORE.INTRA.DIHEDRAL.0>
15.8194

>  <SCORE.INTRA.POLAR>
0

>  <SCORE.INTRA.POLAR.0>
0

>  <SCORE.INTRA.REPUL>
0

>  <SCORE.INTRA.REPUL.0>
0

>  <SCORE.INTRA.SOLV>
2.21971

>  <SCORE.INTRA.SOLV.lig_0>
-71.9159

>  <SCORE.INTRA.VDW>
15.1995

>  <SCORE.INTRA.VDW.0>
-3.53918

>  <SCORE.INTRA.norm>
0.432653

>  <SCORE.RESTR>
8.43403

>  <SCORE.RESTR.CAVITY>
8.43403

>  <SCORE.RESTR.norm>
0.24806

>  <SCORE.SYSTEM>
0

>  <SCORE.SYSTEM.CONST>
0

>  <SCORE.SYSTEM.DIHEDRAL>
0

>  <SCORE.SYSTEM.SOLV>
0

>  <SCORE.SYSTEM.norm>
0

>  <SCORE.heavy>
34

>  <SCORE.norm>
0.785444

>  <RMSD>
9.780

$$$$
ligand
 OpenBabel01301917533D
libRbt.so/2013.1/901 2013/11/27
 34 36  0  0  0  0  0  0  0  0999 V2000
   19.5328   31.8614   28.8937 C   0  0  2  0  0  0  0  0  0  0  0  0
   19.2149   33.2423   29.0947 O   0  0  0  0  0  0  0  0  0  0  0  0
   20.3504   36.6173   31.4868 C   0  0  2  0  0  0  0  0  0  0  0  0
   20.9446   37.4429   32.5469 N   0  0  0  0  0  0  0  0  0  0  0  0
   21.7361   38.3862   30.0134 C   0  0  2  0  0  0  0  0  0  0  0  0
   19.0670   31.0629   30.1690 C   0  0  2  0  0  0  0  0  0  0  0  0
   17.6218   31.2278   30.3927 N   0  0  0  0  0  0  0  0  0  0  0  0
   19.4989   35.4916   32.1774 C   0  0  0  0  0  0  0  0  0  0  0  0
   20.6847   38.4653   28.8372 C   0  0  2  0  0  0  0  0  0  0  0  0
   19.6298   37.5448   29.0571 O   0  0  0  0  0  0  0  0  0  0  0  0
   19.8608   31.5401   31.4225 C   0  0  1  0  0  0  0  0  0  0  0  0
   19.4380   30.8128   32.5906 O   0  0  0  0  0  0  0  0  0  0  0  0
   18.8492   34.6222   31.0441 C   0  0  2  0  0  0  0  0  0  0  0  0
   18.0272   33.5248   31.6293 N   0  0  0  0  0  0  0  0  0  0  0  0
   21.4294   38.1306   27.4897 C   0  0  1  0  0  0  0  0  0  0  0  0
   20.4904   38.1520   26.3501 N   0  0  0  0  0  0  0  0  0  0  0  0
   21.3703   31.3476   31.1463 C   0  0  2  0  0  0  0  0  0  0  0  0
   22.1179   31.7690   32.2915 O   0  0  0  0  0  0  0  0  0  0  0  0
   19.9440   33.9962   30.1282 C   0  0  2  0  0  0  0  0  0  0  0  0
   22.5748   39.1690   27.2702 C   0  0  1  0  0  0  0  0  0  0  0  0
   21.9930   40.4640   27.1611 O   0  0  0  0  0  0  0  0  0  0  0  0
   21.7640   32.1822   29.8523 C   0  0  2  0  0  0  0  0  0  0  0  0
   20.9733   31.7387   28.6826 O   0  0  0  0  0  0  0  0  0  0  0  0
   20.8075   35.1328   29.5165 C   0  0  2  0  0  0  0  0  0  0  0  0
   21.8189   34.5328   28.7097 O   0  0  0  0  0  0  0  0  0  0  0  0
   23.5421   39.1206   28.4963 C   0  0  0  0  0  0  0  0  0  0  0  0
   22.8159   39.3617   29.7661 O   0  0  0  0  0  0  0  0  0  0  0  0
   23.2706   32.0484   29.4881 C   0  0  2  0  0  0  0  0  0  0  0  0
   23.5460   32.8342   28.3232 O   0  0  0  0  0  0  0  0  0  0  0  0
   21.5089   35.9758   30.6100 C   0  0  1  0  0  0  0  0  0  0  0  0
   22.2675   37.0241   29.9465 O   0  0  0  0  0  0  0  0  0  0  0  0
   23.6604   30.6184   29.1854 C   0  0  0  0  0  0  0  0  0  0  0  0
   23.3616   38.8989   25.9868 C   0  0  0  0  0  0  0  0  0  0  0  0
   20.7392   36.9302   25.5463 C   0  0  0  0  0  0  0  0  0  0  0  0
  1  2  1  1  0  0  0
  1  6  1  0  0  0  0
  1 23  1  0  0  0  0
  3  4  1  1  0  0  0
  3  8  1  0  0  0  0
  3 30  1  0  0  0  0
  5  9  1  0  0  0  0
  5 27  1  0  0  0  0
  5 31  1  6  0  0  0
  6  7  1  1  0  0  0
  6 11  1  0  0  0  0
  8 13  1  0  0  0  0
  9 10  1  1  0  0  0
  9 15  1  0  0  0  0
 11 12  1  1  0  0  0
 11 17  1  0  0  0  0
 13 14  1  1  0  0  0
 13 19  1  0  0  0  0
 15 16  1  6  0  0  0
 15 20  1  0  0  0  0
 16 34  1  0  0  0  0
 17 18  1  1  0  0  0
 17 22  1  0  0  0  0
 19  2  1  6  0  0  0
 19 24  1  0  0  0  0
 20 21  1  6  0  0  0
 20 26  1  0  0  0  0
 20 33  1  0  0  0  0
 22 23  1  6  0  0  0
 22 28  1  0  0  0  0
 24 25  1  6  0  0  0
 24 30  1  0  0  0  0
 26 27  1  0  0  0  0
 28 29  1  6  0  0  0
 28 32  1  0  0  0  0
 30 31  1  6  0  0  0
M  END
>  <CHROM.1>
68.00920851,-125.99261148,-133.25463128,-179.54722731,-9.38121980,-84.08663525
21.04030696,35.03769753,29.54749997,-1.90325347,0.85663431,-0.11305428

>  <Name>
ligand

>  <RI>
0

>  <Rbt.Current_Directory>
/home/itssahil/PROJECTS/Mol_Feturizer/New_Systems/rnas/4p3s

>  <Rbt.Executable>
rbdock ($Id: //depot/dev/client3/rdock/2013.1/src/exe/rbdock.cxx#4 $)

>  <Rbt.Library>
libRbt.so (2013.1, Build901 2013/11/27)

>  <Rbt.Parameter_File>
/export/apps/rDock/src/rDock_2013.1_src/data/scripts/dock_solv.prm

>  <Rbt.Receptor>
prm/blind_docking_100.prm

>  <SCORE>
16.3179

>  <SCORE.INTER>
-0.800967

>  <SCORE.INTER.CONST>
1

>  <SCORE.INTER.POLAR>
0

>  <SCORE.INTER.ROT>
6

>  <SCORE.INTER.SOLV>
18.4587

>  <SCORE.INTER.VDW>
-14.2869

>  <SCORE.INTER.norm>
-0.0235578

>  <SCORE.INTRA>
15.476

>  <SCORE.INTRA.DIHEDRAL>
1.81725

>  <SCORE.INTRA.DIHEDRAL.0>
15.8194

>  <SCORE.INTRA.POLAR>
0

>  <SCORE.INTRA.POLAR.0>
0

>  <SCORE.INTRA.REPUL>
0

>  <SCORE.INTRA.REPUL.0>
0

>  <SCORE.INTRA.SOLV>
8.38487

>  <SCORE.INTRA.SOLV.lig_0>
-71.9159

>  <SCORE.INTRA.VDW>
10.375

>  <SCORE.INTRA.VDW.0>
-3.53918

>  <SCORE.INTRA.norm>
0.455177

>  <SCORE.RESTR>
1.64287

>  <SCORE.RESTR.CAVITY>
1.64287

>  <SCORE.RESTR.norm>
0.0483197

>  <SCORE.SYSTEM>
0

>  <SCORE.SYSTEM.CONST>
0

>  <SCORE.SYSTEM.DIHEDRAL>
0

>  <SCORE.SYSTEM.SOLV>
0

>  <SCORE.SYSTEM.norm>
0

>  <SCORE.heavy>
34

>  <SCORE.norm>
0.479939

>  <RMSD>
9.972

$$$$
ligand
 OpenBabel01301917533D
libRbt.so/2013.1/901 2013/11/27
 34 36  0  0  0  0  0  0  0  0999 V2000
   16.7453   36.4154   37.4366 C   0  0  2  0  0  0  0  0  0  0  0  0
   16.4769   36.1227   36.0616 O   0  0  0  0  0  0  0  0  0  0  0  0
   16.1052   32.3895   33.9815 C   0  0  2  0  0  0  0  0  0  0  0  0
   16.4329   31.1215   33.3154 N   0  0  0  0  0  0  0  0  0  0  0  0
   15.9619   29.8624   35.8275 C   0  0  2  0  0  0  0  0  0  0  0  0
   16.3209   37.9073   37.7097 C   0  0  2  0  0  0  0  0  0  0  0  0
   14.8938   38.1098   37.4128 N   0  0  0  0  0  0  0  0  0  0  0  0
   16.9475   33.5234   33.2930 C   0  0  0  0  0  0  0  0  0  0  0  0
   14.9796   29.0172   36.7309 C   0  0  2  0  0  0  0  0  0  0  0  0
   13.6330   29.2971   36.3893 O   0  0  0  0  0  0  0  0  0  0  0  0
   17.1889   38.8790   36.8545 C   0  0  1  0  0  0  0  0  0  0  0  0
   16.8041   40.2441   37.1010 O   0  0  0  0  0  0  0  0  0  0  0  0
   16.5824   34.8799   33.9922 C   0  0  2  0  0  0  0  0  0  0  0  0
   17.3530   36.0054   33.3907 N   0  0  0  0  0  0  0  0  0  0  0  0
   15.2507   29.3941   38.2365 C   0  0  1  0  0  0  0  0  0  0  0  0
   14.3357   28.6618   39.1352 N   0  0  0  0  0  0  0  0  0  0  0  0
   18.6769   38.6351   37.1986 C   0  0  2  0  0  0  0  0  0  0  0  0
   19.4918   39.5272   36.4318 O   0  0  0  0  0  0  0  0  0  0  0  0
   16.8917   34.8184   35.5186 C   0  0  2  0  0  0  0  0  0  0  0  0
   16.7362   29.0616   38.5845 C   0  0  1  0  0  0  0  0  0  0  0  0
   16.9337   27.6610   38.4214 O   0  0  0  0  0  0  0  0  0  0  0  0
   19.0294   37.1153   36.8951 C   0  0  2  0  0  0  0  0  0  0  0  0
   18.1696   36.2098   37.6893 O   0  0  0  0  0  0  0  0  0  0  0  0
   16.0952   33.6460   36.1530 C   0  0  2  0  0  0  0  0  0  0  0  0
   16.4197   33.5922   37.5407 O   0  0  0  0  0  0  0  0  0  0  0  0
   17.6711   29.8489   37.6111 C   0  0  0  0  0  0  0  0  0  0  0  0
   17.3554   29.5435   36.1951 O   0  0  0  0  0  0  0  0  0  0  0  0
   20.5118   36.7683   37.2155 C   0  0  2  0  0  0  0  0  0  0  0  0
   21.3715   37.6320   36.4637 O   0  0  0  0  0  0  0  0  0  0  0  0
   16.4748   32.2834   35.5224 C   0  0  1  0  0  0  0  0  0  0  0  0
   15.6641   31.2569   36.1577 O   0  0  0  0  0  0  0  0  0  0  0  0
   20.8559   35.3408   36.8518 C   0  0  0  0  0  0  0  0  0  0  0  0
   17.0850   29.4192   40.0299 C   0  0  0  0  0  0  0  0  0  0  0  0
   13.3091   29.6244   39.6046 C   0  0  0  0  0  0  0  0  0  0  0  0
  1  2  1  6  0  0  0
  1  6  1  0  0  0  0
  1 23  1  0  0  0  0
  3  4  1  6  0  0  0
  3  8  1  0  0  0  0
  3 30  1  0  0  0  0
  5  9  1  0  0  0  0
  5 27  1  0  0  0  0
  5 31  1  1  0  0  0
  6  7  1  6  0  0  0
  6 11  1  0  0  0  0
  8 13  1  0  0  0  0
  9 10  1  6  0  0  0
  9 15  1  0  0  0  0
 11 12  1  1  0  0  0
 11 17  1  0  0  0  0
 13 14  1  6  0  0  0
 13 19  1  0  0  0  0
 15 16  1  1  0  0  0
 15 20  1  0  0  0  0
 16 34  1  0  0  0  0
 17 18  1  6  0  0  0
 17 22  1  0  0  0  0
 19  2  1  1  0  0  0
 19 24  1  0  0  0  0
 20 21  1  6  0  0  0
 20 26  1  0  0  0  0
 20 33  1  0  0  0  0
 22 23  1  1  0  0  0
 22 28  1  0  0  0  0
 24 25  1  1  0  0  0
 24 30  1  0  0  0  0
 26 27  1  0  0  0  0
 28 29  1  6  0  0  0
 28 32  1  0  0  0  0
 30 31  1  1  0  0  0
M  END
>  <CHROM.1>
174.89547537,-174.64947163,-105.06949077,-57.33122951,71.47438752,176.80574388
16.91960473,33.64316970,36.69639813,-0.46030495,1.23841011,1.94760300

>  <Name>
ligand

>  <RI>
0

>  <Rbt.Current_Directory>
/home/itssahil/PROJECTS/Mol_Feturizer/New_Systems/rnas/4p3s

>  <Rbt.Executable>
rbdock ($Id: //depot/dev/client3/rdock/2013.1/src/exe/rbdock.cxx#4 $)

>  <Rbt.Library>
libRbt.so (2013.1, Build901 2013/11/27)

>  <Rbt.Parameter_File>
/export/apps/rDock/src/rDock_2013.1_src/data/scripts/dock_solv.prm

>  <Rbt.Receptor>
prm/pocket_docking_8.prm

>  <SCORE>
-9.09644

>  <SCORE.INTER>
-2.33636

>  <SCORE.INTER.CONST>
1

>  <SCORE.INTER.POLAR>
0

>  <SCORE.INTER.ROT>
6

>  <SCORE.INTER.SOLV>
13.507

>  <SCORE.INTER.VDW>
-13.6599

>  <SCORE.INTER.norm>
-0.0687166

>  <SCORE.INTRA>
-6.76007

>  <SCORE.INTRA.DIHEDRAL>
-13.7083

>  <SCORE.INTRA.DIHEDRAL.0>
15.8194

>  <SCORE.INTRA.POLAR>
0

>  <SCORE.INTRA.POLAR.0>
0

>  <SCORE.INTRA.REPUL>
0

>  <SCORE.INTRA.REPUL.0>
0

>  <SCORE.INTRA.SOLV>
-0.559437

>  <SCORE.INTRA.SOLV.lig_0>
-71.9159

>  <SCORE.INTRA.VDW>
0.373811

>  <SCORE.INTRA.VDW.0>
-3.53918

>  <SCORE.INTRA.norm>
-0.198826

>  <SCORE.RESTR>
0

>  <SCORE.RESTR.CAVITY>
0

>  <SCORE.RESTR.norm>
0

>  <SCORE.SYSTEM>
0

>  <SCORE.SYSTEM.CONST>
0

>  <SCORE.SYSTEM.DIHEDRAL>
0

>  <SCORE.SYSTEM.SOLV>
0

>  <SCORE.SYSTEM.norm>
0

>  <SCORE.heavy>
34

>  <SCORE.norm>
-0.267542

>  <RMSD>
10.106

$$$$
ligand
 OpenBabel01301917533D
libRbt.so/2013.1/901 2013/11/27
 34 36  0  0  0  0  0  0  0  0999 V2000
   20.3966   32.5897   32.9002 C   0  0  2  0  0  0  0  0  0  0  0  0
   21.5769   32.8751   32.1428 O   0  0  0  0  0  0  0  0  0  0  0  0
   20.9129   37.0545   31.4399 C   0  0  2  0  0  0  0  0  0  0  0  0
   21.1396   38.4943   31.2550 N   0  0  0  0  0  0  0  0  0  0  0  0
   20.9032   38.0430   28.6535 C   0  0  2  0  0  0  0  0  0  0  0  0
   20.1359   31.0379   32.8313 C   0  0  2  0  0  0  0  0  0  0  0  0
   21.2826   30.2886   33.3695 N   0  0  0  0  0  0  0  0  0  0  0  0
   21.5522   36.6421   32.8149 C   0  0  0  0  0  0  0  0  0  0  0  0
   20.1717   38.0913   27.2542 C   0  0  2  0  0  0  0  0  0  0  0  0
   18.8572   37.5739   27.3678 O   0  0  0  0  0  0  0  0  0  0  0  0
   19.8552   30.6041   31.3609 C   0  0  1  0  0  0  0  0  0  0  0  0
   19.6165   29.1860   31.2933 O   0  0  0  0  0  0  0  0  0  0  0  0
   21.2927   35.1083   33.0205 C   0  0  2  0  0  0  0  0  0  0  0  0
   21.8803   34.6439   34.3095 N   0  0  0  0  0  0  0  0  0  0  0  0
   21.0098   37.2335   26.2323 C   0  0  1  0  0  0  0  0  0  0  0  0
   20.3575   37.2078   24.9076 N   0  0  0  0  0  0  0  0  0  0  0  0
   18.6448   31.4116   30.8367 C   0  0  2  0  0  0  0  0  0  0  0  0
   18.3622   31.0190   29.4899 O   0  0  0  0  0  0  0  0  0  0  0  0
   21.9155   34.2793   31.8568 C   0  0  2  0  0  0  0  0  0  0  0  0
   22.4458   37.8364   26.1198 C   0  0  1  0  0  0  0  0  0  0  0  0
   22.3378   39.1653   25.6201 O   0  0  0  0  0  0  0  0  0  0  0  0
   18.9830   32.9615   30.9345 C   0  0  2  0  0  0  0  0  0  0  0  0
   19.2822   33.3448   32.3323 O   0  0  0  0  0  0  0  0  0  0  0  0
   21.3112   34.7589   30.5092 C   0  0  2  0  0  0  0  0  0  0  0  0
   21.9196   34.0078   29.4607 O   0  0  0  0  0  0  0  0  0  0  0  0
   23.0996   37.8518   27.5389 C   0  0  0  0  0  0  0  0  0  0  0  0
   22.2635   38.5977   28.5098 O   0  0  0  0  0  0  0  0  0  0  0  0
   17.8184   33.8621   30.4317 C   0  0  2  0  0  0  0  0  0  0  0  0
   17.5923   33.6081   29.0408 O   0  0  0  0  0  0  0  0  0  0  0  0
   21.5993   36.2582   30.2495 C   0  0  1  0  0  0  0  0  0  0  0  0
   20.9760   36.6196   28.9863 O   0  0  0  0  0  0  0  0  0  0  0  0
   18.1257   35.3349   30.5900 C   0  0  0  0  0  0  0  0  0  0  0  0
   23.3314   37.0440   25.1572 C   0  0  0  0  0  0  0  0  0  0  0  0
   19.3015   36.1669   24.9524 C   0  0  0  0  0  0  0  0  0  0  0  0
  1  2  1  6  0  0  0
  1  6  1  0  0  0  0
  1 23  1  0  0  0  0
  3  4  1  6  0  0  0
  3  8  1  0  0  0  0
  3 30  1  0  0  0  0
  5  9  1  0  0  0  0
  5 27  1  0  0  0  0
  5 31  1  6  0  0  0
  6  7  1  6  0  0  0
  6 11  1  0  0  0  0
  8 13  1  0  0  0  0
  9 10  1  1  0  0  0
  9 15  1  0  0  0  0
 11 12  1  1  0  0  0
 11 17  1  0  0  0  0
 13 14  1  1  0  0  0
 13 19  1  0  0  0  0
 15 16  1  6  0  0  0
 15 20  1  0  0  0  0
 16 34  1  0  0  0  0
 17 18  1  6  0  0  0
 17 22  1  0  0  0  0
 19  2  1  1  0  0  0
 19 24  1  0  0  0  0
 20 21  1  6  0  0  0
 20 26  1  0  0  0  0
 20 33  1  0  0  0  0
 22 23  1  1  0  0  0
 22 28  1  0  0  0  0
 24 25  1  6  0  0  0
 24 30  1  0  0  0  0
 26 27  1  0  0  0  0
 28 29  1  6  0  0  0
 28 32  1  0  0  0  0
 30 31  1  6  0  0  0
M  END
>  <CHROM.1>
169.80232193,27.33678176,-82.07489954,-63.16537537,53.53976063,-179.44186741
20.57977381,35.01645263,29.77463524,-1.90214533,-0.99874884,-1.01272526

>  <Name>
ligand

>  <RI>
0

>  <Rbt.Current_Directory>
/home/itssahil/PROJECTS/Mol_Feturizer/New_Systems/rnas/4p3s

>  <Rbt.Executable>
rbdock ($Id: //depot/dev/client3/rdock/2013.1/src/exe/rbdock.cxx#4 $)

>  <Rbt.Library>
libRbt.so (2013.1, Build901 2013/11/27)

>  <Rbt.Parameter_File>
/export/apps/rDock/src/rDock_2013.1_src/data/scripts/dock_solv.prm

>  <Rbt.Receptor>
prm/blind_docking_100.prm

>  <SCORE>
12.6725

>  <SCORE.INTER>
9.18007

>  <SCORE.INTER.CONST>
1

>  <SCORE.INTER.POLAR>
0

>  <SCORE.INTER.ROT>
6

>  <SCORE.INTER.SOLV>
19.3985

>  <SCORE.INTER.VDW>
-7.94611

>  <SCORE.INTER.norm>
0.270002

>  <SCORE.INTRA>
0.171903

>  <SCORE.INTRA.DIHEDRAL>
-10.5145

>  <SCORE.INTRA.DIHEDRAL.0>
15.8194

>  <SCORE.INTRA.POLAR>
0

>  <SCORE.INTRA.POLAR.0>
0

>  <SCORE.INTRA.REPUL>
0

>  <SCORE.INTRA.REPUL.0>
0

>  <SCORE.INTRA.SOLV>
2.06031

>  <SCORE.INTRA.SOLV.lig_0>
-71.9159

>  <SCORE.INTRA.VDW>
4.39901

>  <SCORE.INTRA.VDW.0>
-3.53918

>  <SCORE.INTRA.norm>
0.00505596

>  <SCORE.RESTR>
3.32048

>  <SCORE.RESTR.CAVITY>
3.32048

>  <SCORE.RESTR.norm>
0.0976613

>  <SCORE.SYSTEM>
0

>  <SCORE.SYSTEM.CONST>
0

>  <SCORE.SYSTEM.DIHEDRAL>
0

>  <SCORE.SYSTEM.SOLV>
0

>  <SCORE.SYSTEM.norm>
0

>  <SCORE.heavy>
34

>  <SCORE.norm>
0.372719

>  <RMSD>
10.142

$$$$
ligand
 OpenBabel01301917533D
libRbt.so/2013.1/901 2013/11/27
 34 36  0  0  0  0  0  0  0  0999 V2000
   17.6350   24.9119   35.0367 C   0  0  2  0  0  0  0  0  0  0  0  0
   18.1339   25.6155   33.8947 O   0  0  0  0  0  0  0  0  0  0  0  0
   19.4989   23.1742   30.6421 C   0  0  2  0  0  0  0  0  0  0  0  0
   20.3638   22.5345   29.6414 N   0  0  0  0  0  0  0  0  0  0  0  0
   20.8594   20.3806   31.9416 C   0  0  2  0  0  0  0  0  0  0  0  0
   16.2363   24.2952   34.6572 C   0  0  2  0  0  0  0  0  0  0  0  0
   16.3589   23.3838   33.5082 N   0  0  0  0  0  0  0  0  0  0  0  0
   19.6828   24.7292   30.5096 C   0  0  0  0  0  0  0  0  0  0  0  0
   20.2999   18.9159   32.1339 C   0  0  2  0  0  0  0  0  0  0  0  0
   19.2765   18.6520   31.1898 O   0  0  0  0  0  0  0  0  0  0  0  0
   15.2176   25.4297   34.3344 C   0  0  1  0  0  0  0  0  0  0  0  0
   13.9375   24.8704   33.9868 O   0  0  0  0  0  0  0  0  0  0  0  0
   18.7442   25.4120   31.5656 C   0  0  2  0  0  0  0  0  0  0  0  0
   18.8717   26.8959   31.5007 N   0  0  0  0  0  0  0  0  0  0  0  0
   19.7352   18.7947   33.5997 C   0  0  1  0  0  0  0  0  0  0  0  0
   19.1616   17.4541   33.8335 N   0  0  0  0  0  0  0  0  0  0  0  0
   15.1177   26.3604   35.5657 C   0  0  2  0  0  0  0  0  0  0  0  0
   14.1767   27.4038   35.2944 O   0  0  0  0  0  0  0  0  0  0  0  0
   19.0968   24.9401   33.0087 C   0  0  2  0  0  0  0  0  0  0  0  0
   20.8883   19.0772   34.6140 C   0  0  1  0  0  0  0  0  0  0  0  0
   21.8997   18.0917   34.4311 O   0  0  0  0  0  0  0  0  0  0  0  0
   16.5613   26.9440   35.8840 C   0  0  2  0  0  0  0  0  0  0  0  0
   17.5212   25.8498   36.1512 O   0  0  0  0  0  0  0  0  0  0  0  0
   18.9697   23.3943   33.0847 C   0  0  2  0  0  0  0  0  0  0  0  0
   19.3274   22.9866   34.4036 O   0  0  0  0  0  0  0  0  0  0  0  0
   21.4719   20.4989   34.3319 C   0  0  0  0  0  0  0  0  0  0  0  0
   21.9303   20.6249   32.9276 O   0  0  0  0  0  0  0  0  0  0  0  0
   16.5656   27.8938   37.1162 C   0  0  2  0  0  0  0  0  0  0  0  0
   17.9160   28.2485   37.4338 O   0  0  0  0  0  0  0  0  0  0  0  0
   19.9261   22.6879   32.0924 C   0  0  1  0  0  0  0  0  0  0  0  0
   19.7176   21.2541   32.2165 O   0  0  0  0  0  0  0  0  0  0  0  0
   15.9566   27.2451   38.3397 C   0  0  0  0  0  0  0  0  0  0  0  0
   20.4135   18.9979   36.0656 C   0  0  0  0  0  0  0  0  0  0  0  0
   17.7004   17.5482   33.5953 C   0  0  0  0  0  0  0  0  0  0  0  0
  1  2  1  6  0  0  0
  1  6  1  0  0  0  0
  1 23  1  0  0  0  0
  3  4  1  6  0  0  0
  3  8  1  0  0  0  0
  3 30  1  0  0  0  0
  5  9  1  0  0  0  0
  5 27  1  0  0  0  0
  5 31  1  1  0  0  0
  6  7  1  6  0  0  0
  6 11  1  0  0  0  0
  8 13  1  0  0  0  0
  9 10  1  6  0  0  0
  9 15  1  0  0  0  0
 11 12  1  1  0  0  0
 11 17  1  0  0  0  0
 13 14  1  1  0  0  0
 13 19  1  0  0  0  0
 15 16  1  1  0  0  0
 15 20  1  0  0  0  0
 16 34  1  0  0  0  0
 17 18  1  6  0  0  0
 17 22  1  0  0  0  0
 19  2  1  1  0  0  0
 19 24  1  0  0  0  0
 20 21  1  6  0  0  0
 20 26  1  0  0  0  0
 20 33  1  0  0  0  0
 22 23  1  1  0  0  0
 22 28  1  0  0  0  0
 24 25  1  1  0  0  0
 24 30  1  0  0  0  0
 26 27  1  0  0  0  0
 28 29  1  1  0  0  0
 28 32  1  0  0  0  0
 30 31  1  6  0  0  0
M  END
>  <CHROM.1>
-97.35570003,143.55454558,-95.92838722,173.16158874,94.39086132,-178.91243712
18.49666615,23.09764892,33.81259323,2.69048049,1.03424059,-0.72290437

>  <Name>
ligand

>  <RI>
0

>  <Rbt.Current_Directory>
/home/itssahil/PROJECTS/Mol_Feturizer/New_Systems/rnas/4p3s

>  <Rbt.Executable>
rbdock ($Id: //depot/dev/client3/rdock/2013.1/src/exe/rbdock.cxx#4 $)

>  <Rbt.Library>
libRbt.so (2013.1, Build901 2013/11/27)

>  <Rbt.Parameter_File>
/export/apps/rDock/src/rDock_2013.1_src/data/scripts/dock_solv.prm

>  <Rbt.Receptor>
prm/blind_docking_60.prm

>  <SCORE>
34.1272

>  <SCORE.INTER>
18.4485

>  <SCORE.INTER.CONST>
1

>  <SCORE.INTER.POLAR>
0

>  <SCORE.INTER.ROT>
6

>  <SCORE.INTER.SOLV>
28.4816

>  <SCORE.INTER.VDW>
-4.79485

>  <SCORE.INTER.norm>
0.542604

>  <SCORE.INTRA>
3.85432

>  <SCORE.INTRA.DIHEDRAL>
-0.685317

>  <SCORE.INTRA.DIHEDRAL.0>
15.8194

>  <SCORE.INTRA.POLAR>
0

>  <SCORE.INTRA.POLAR.0>
0

>  <SCORE.INTRA.REPUL>
0.0225449

>  <SCORE.INTRA.REPUL.0>
0

>  <SCORE.INTRA.SOLV>
1.90004

>  <SCORE.INTRA.SOLV.lig_0>
-71.9159

>  <SCORE.INTRA.VDW>
3.13424

>  <SCORE.INTRA.VDW.0>
-3.53918

>  <SCORE.INTRA.norm>
0.113362

>  <SCORE.RESTR>
11.8243

>  <SCORE.RESTR.CAVITY>
11.8243

>  <SCORE.RESTR.norm>
0.347774

>  <SCORE.SYSTEM>
0

>  <SCORE.SYSTEM.CONST>
0

>  <SCORE.SYSTEM.DIHEDRAL>
0

>  <SCORE.SYSTEM.SOLV>
0

>  <SCORE.SYSTEM.norm>
0

>  <SCORE.heavy>
34

>  <SCORE.norm>
1.00374

>  <RMSD>
10.279

$$$$
ligand
 OpenBabel01301917533D
libRbt.so/2013.1/901 2013/11/27
 34 36  0  0  0  0  0  0  0  0999 V2000
   20.1149   37.3061   31.0150 C   0  0  2  0  0  0  0  0  0  0  0  0
   19.4901   37.0005   32.2657 O   0  0  0  0  0  0  0  0  0  0  0  0
   21.8912   33.6088   33.3304 C   0  0  2  0  0  0  0  0  0  0  0  0
   22.3990   32.4185   34.0260 N   0  0  0  0  0  0  0  0  0  0  0  0
   21.8876   31.4875   31.6613 C   0  0  2  0  0  0  0  0  0  0  0  0
   20.1280   38.8720   30.8458 C   0  0  2  0  0  0  0  0  0  0  0  0
   20.8568   39.5134   31.9519 N   0  0  0  0  0  0  0  0  0  0  0  0
   21.7478   34.7587   34.3917 C   0  0  0  0  0  0  0  0  0  0  0  0
   22.8014   32.2566   30.6275 C   0  0  2  0  0  0  0  0  0  0  0  0
   23.0526   33.5762   31.0790 O   0  0  0  0  0  0  0  0  0  0  0  0
   18.6699   39.4182   30.7775 C   0  0  1  0  0  0  0  0  0  0  0  0
   18.6772   40.8494   30.6230 O   0  0  0  0  0  0  0  0  0  0  0  0
   21.2239   36.0349   33.6442 C   0  0  2  0  0  0  0  0  0  0  0  0
   21.0576   37.1704   34.5958 N   0  0  0  0  0  0  0  0  0  0  0  0
   22.0550   32.2869   29.2403 C   0  0  1  0  0  0  0  0  0  0  0  0
   22.8436   33.0267   28.2344 N   0  0  0  0  0  0  0  0  0  0  0  0
   17.9428   38.7218   29.6035 C   0  0  2  0  0  0  0  0  0  0  0  0
   16.6037   39.2188   29.5153 O   0  0  0  0  0  0  0  0  0  0  0  0
   19.8545   35.7517   32.9557 C   0  0  2  0  0  0  0  0  0  0  0  0
   21.8057   30.8206   28.7647 C   0  0  1  0  0  0  0  0  0  0  0  0
   23.0672   30.1835   28.5909 O   0  0  0  0  0  0  0  0  0  0  0  0
   17.9680   37.1512   29.8458 C   0  0  2  0  0  0  0  0  0  0  0  0
   19.3602   36.6590   29.9444 O   0  0  0  0  0  0  0  0  0  0  0  0
   20.0178   34.5676   31.9645 C   0  0  2  0  0  0  0  0  0  0  0  0
   18.7462   34.3091   31.3728 O   0  0  0  0  0  0  0  0  0  0  0  0
   20.9752   30.0704   29.8552 C   0  0  0  0  0  0  0  0  0  0  0  0
   21.6518   30.1145   31.1736 O   0  0  0  0  0  0  0  0  0  0  0  0
   17.2608   36.3579   28.7096 C   0  0  2  0  0  0  0  0  0  0  0  0
   16.0203   36.9972   28.3894 O   0  0  0  0  0  0  0  0  0  0  0  0
   20.4804   33.2753   32.6816 C   0  0  1  0  0  0  0  0  0  0  0  0
   20.6301   32.2362   31.6754 O   0  0  0  0  0  0  0  0  0  0  0  0
   16.9569   34.9317   29.1122 C   0  0  0  0  0  0  0  0  0  0  0  0
   21.0641   30.7646   27.4284 C   0  0  0  0  0  0  0  0  0  0  0  0
   22.1652   34.3260   28.0058 C   0  0  0  0  0  0  0  0  0  0  0  0
  1  2  1  1  0  0  0
  1  6  1  0  0  0  0
  1 23  1  0  0  0  0
  3  4  1  1  0  0  0
  3  8  1  0  0  0  0
  3 30  1  0  0  0  0
  5  9  1  0  0  0  0
  5 27  1  0  0  0  0
  5 31  1  6  0  0  0
  6  7  1  1  0  0  0
  6 11  1  0  0  0  0
  8 13  1  0  0  0  0
  9 10  1  1  0  0  0
  9 15  1  0  0  0  0
 11 12  1  6  0  0  0
 11 17  1  0  0  0  0
 13 14  1  1  0  0  0
 13 19  1  0  0  0  0
 15 16  1  6  0  0  0
 15 20  1  0  0  0  0
 16 34  1  0  0  0  0
 17 18  1  1  0  0  0
 17 22  1  0  0  0  0
 19  2  1  6  0  0  0
 19 24  1  0  0  0  0
 20 21  1  6  0  0  0
 20 26  1  0  0  0  0
 20 33  1  0  0  0  0
 22 23  1  6  0  0  0
 22 28  1  0  0  0  0
 24 25  1  1  0  0  0
 24 30  1  0  0  0  0
 26 27  1  0  0  0  0
 28 29  1  1  0  0  0
 28 32  1  0  0  0  0
 30 31  1  6  0  0  0
M  END
>  <CHROM.1>
-152.98270353,78.59269795,-107.12179444,-45.00617401,14.13583650,-93.17212119
20.30947126,34.88199930,30.78650061,-2.42214755,0.92235378,-2.36423456

>  <Name>
ligand

>  <RI>
0

>  <Rbt.Current_Directory>
/home/itssahil/PROJECTS/Mol_Feturizer/New_Systems/rnas/4p3s

>  <Rbt.Executable>
rbdock ($Id: //depot/dev/client3/rdock/2013.1/src/exe/rbdock.cxx#4 $)

>  <Rbt.Library>
libRbt.so (2013.1, Build901 2013/11/27)

>  <Rbt.Parameter_File>
/export/apps/rDock/src/rDock_2013.1_src/data/scripts/dock_solv.prm

>  <Rbt.Receptor>
prm/blind_docking_60.prm

>  <SCORE>
22.054

>  <SCORE.INTER>
4.76945

>  <SCORE.INTER.CONST>
1

>  <SCORE.INTER.POLAR>
0

>  <SCORE.INTER.ROT>
6

>  <SCORE.INTER.SOLV>
20.674

>  <SCORE.INTER.VDW>
-11.3117

>  <SCORE.INTER.norm>
0.140278

>  <SCORE.INTRA>
7.35923

>  <SCORE.INTRA.DIHEDRAL>
1.09044

>  <SCORE.INTRA.DIHEDRAL.0>
15.8194

>  <SCORE.INTRA.POLAR>
0

>  <SCORE.INTRA.POLAR.0>
0

>  <SCORE.INTRA.REPUL>
0

>  <SCORE.INTRA.REPUL.0>
0

>  <SCORE.INTRA.SOLV>
3.4988

>  <SCORE.INTRA.SOLV.lig_0>
-71.9159

>  <SCORE.INTRA.VDW>
5.06461

>  <SCORE.INTRA.VDW.0>
-3.53918

>  <SCORE.INTRA.norm>
0.216448

>  <SCORE.RESTR>
9.92529

>  <SCORE.RESTR.CAVITY>
9.92529

>  <SCORE.RESTR.norm>
0.29192

>  <SCORE.SYSTEM>
0

>  <SCORE.SYSTEM.CONST>
0

>  <SCORE.SYSTEM.DIHEDRAL>
0

>  <SCORE.SYSTEM.SOLV>
0

>  <SCORE.SYSTEM.norm>
0

>  <SCORE.heavy>
34

>  <SCORE.norm>
0.648646

>  <RMSD>
10.297

$$$$
ligand
 OpenBabel01301917533D
libRbt.so/2013.1/901 2013/11/27
 34 36  0  0  0  0  0  0  0  0999 V2000
   21.2604   31.7232   30.1637 C   0  0  2  0  0  0  0  0  0  0  0  0
   19.9295   32.2489   30.1370 O   0  0  0  0  0  0  0  0  0  0  0  0
   18.3272   35.9863   28.7708 C   0  0  2  0  0  0  0  0  0  0  0  0
   17.9905   37.4135   28.6805 N   0  0  0  0  0  0  0  0  0  0  0  0
   21.7212   36.1689   26.9345 C   0  0  2  0  0  0  0  0  0  0  0  0
   21.2944   30.5334   31.1952 C   0  0  2  0  0  0  0  0  0  0  0  0
   20.3368   29.4822   30.8158 N   0  0  0  0  0  0  0  0  0  0  0  0
   17.8743   35.4763   30.1864 C   0  0  0  0  0  0  0  0  0  0  0  0
   22.4399   37.0303   28.0467 C   0  0  2  0  0  0  0  0  0  0  0  0
   22.2307   36.4563   29.3255 O   0  0  0  0  0  0  0  0  0  0  0  0
   20.9768   31.0549   32.6291 C   0  0  1  0  0  0  0  0  0  0  0  0
   21.0067   29.9704   33.5753 O   0  0  0  0  0  0  0  0  0  0  0  0
   18.2166   33.9475   30.2745 C   0  0  2  0  0  0  0  0  0  0  0  0
   17.8177   33.3950   31.6004 N   0  0  0  0  0  0  0  0  0  0  0  0
   21.8453   38.4885   27.9987 C   0  0  1  0  0  0  0  0  0  0  0  0
   22.4520   39.3388   29.0427 N   0  0  0  0  0  0  0  0  0  0  0  0
   22.0053   32.1530   32.9877 C   0  0  2  0  0  0  0  0  0  0  0  0
   21.7385   32.6376   34.3075 O   0  0  0  0  0  0  0  0  0  0  0  0
   19.7430   33.7079   30.0690 C   0  0  2  0  0  0  0  0  0  0  0  0
   22.1037   39.0968   26.5839 C   0  0  1  0  0  0  0  0  0  0  0  0
   23.5103   39.1699   26.3758 O   0  0  0  0  0  0  0  0  0  0  0  0
   21.9096   33.3155   31.9082 C   0  0  2  0  0  0  0  0  0  0  0  0
   22.1781   32.7923   30.5502 O   0  0  0  0  0  0  0  0  0  0  0  0
   20.1681   34.2836   28.6908 C   0  0  2  0  0  0  0  0  0  0  0  0
   21.5717   34.0800   28.5417 O   0  0  0  0  0  0  0  0  0  0  0  0
   21.4531   38.1683   25.5087 C   0  0  0  0  0  0  0  0  0  0  0  0
   21.9646   36.7807   25.6135 O   0  0  0  0  0  0  0  0  0  0  0  0
   22.9143   34.4715   32.1814 C   0  0  2  0  0  0  0  0  0  0  0  0
   23.4204   34.3511   33.5154 O   0  0  0  0  0  0  0  0  0  0  0  0
   19.8949   35.8048   28.5926 C   0  0  1  0  0  0  0  0  0  0  0  0
   20.2979   36.2453   27.2666 O   0  0  0  0  0  0  0  0  0  0  0  0
   22.2677   35.8330   32.0520 C   0  0  0  0  0  0  0  0  0  0  0  0
   21.5358   40.5105   26.4502 C   0  0  0  0  0  0  0  0  0  0  0  0
   21.5083   39.3795   30.1866 C   0  0  0  0  0  0  0  0  0  0  0  0
  1  2  1  1  0  0  0
  1  6  1  0  0  0  0
  1 23  1  0  0  0  0
  3  4  1  1  0  0  0
  3  8  1  0  0  0  0
  3 30  1  0  0  0  0
  5  9  1  0  0  0  0
  5 27  1  0  0  0  0
  5 31  1  1  0  0  0
  6  7  1  6  0  0  0
  6 11  1  0  0  0  0
  8 13  1  0  0  0  0
  9 10  1  1  0  0  0
  9 15  1  0  0  0  0
 11 12  1  1  0  0  0
 11 17  1  0  0  0  0
 13 14  1  1  0  0  0
 13 19  1  0  0  0  0
 15 16  1  1  0  0  0
 15 20  1  0  0  0  0
 16 34  1  0  0  0  0
 17 18  1  1  0  0  0
 17 22  1  0  0  0  0
 19  2  1  6  0  0  0
 19 24  1  0  0  0  0
 20 21  1  6  0  0  0
 20 26  1  0  0  0  0
 20 33  1  0  0  0  0
 22 23  1  6  0  0  0
 22 28  1  0  0  0  0
 24 25  1  1  0  0  0
 24 30  1  0  0  0  0
 26 27  1  0  0  0  0
 28 29  1  1  0  0  0
 28 32  1  0  0  0  0
 30 31  1  6  0  0  0
M  END
>  <CHROM.1>
139.36596348,-171.60475718,-98.72411945,-14.76351798,179.03964880,-56.98384299
21.09042198,35.05080691,29.73922734,1.66139309,0.63318168,2.44304702

>  <Name>
ligand

>  <RI>
0

>  <Rbt.Current_Directory>
/home/itssahil/PROJECTS/Mol_Feturizer/New_Systems/rnas/4p3s

>  <Rbt.Executable>
rbdock ($Id: //depot/dev/client3/rdock/2013.1/src/exe/rbdock.cxx#4 $)

>  <Rbt.Library>
libRbt.so (2013.1, Build901 2013/11/27)

>  <Rbt.Parameter_File>
/export/apps/rDock/src/rDock_2013.1_src/data/scripts/dock_solv.prm

>  <Rbt.Receptor>
prm/blind_docking_100.prm

>  <SCORE>
9.31968

>  <SCORE.INTER>
3.78032

>  <SCORE.INTER.CONST>
1

>  <SCORE.INTER.POLAR>
0

>  <SCORE.INTER.ROT>
6

>  <SCORE.INTER.SOLV>
21.2218

>  <SCORE.INTER.VDW>
-12.1537

>  <SCORE.INTER.norm>
0.111186

>  <SCORE.INTRA>
4.16778

>  <SCORE.INTRA.DIHEDRAL>
-4.31972

>  <SCORE.INTRA.DIHEDRAL.0>
15.8194

>  <SCORE.INTRA.POLAR>
0

>  <SCORE.INTRA.POLAR.0>
0

>  <SCORE.INTRA.REPUL>
0.00981238

>  <SCORE.INTRA.REPUL.0>
0

>  <SCORE.INTRA.SOLV>
0.960772

>  <SCORE.INTRA.SOLV.lig_0>
-71.9159

>  <SCORE.INTRA.VDW>
5.79819

>  <SCORE.INTRA.VDW.0>
-3.53918

>  <SCORE.INTRA.norm>
0.122582

>  <SCORE.RESTR>
1.37159

>  <SCORE.RESTR.CAVITY>
1.37159

>  <SCORE.RESTR.norm>
0.0403408

>  <SCORE.SYSTEM>
0

>  <SCORE.SYSTEM.CONST>
0

>  <SCORE.SYSTEM.DIHEDRAL>
0

>  <SCORE.SYSTEM.SOLV>
0

>  <SCORE.SYSTEM.norm>
0

>  <SCORE.heavy>
34

>  <SCORE.norm>
0.274108

>  <RMSD>
10.344

$$$$
ligand
 OpenBabel01301917533D
libRbt.so/2013.1/901 2013/11/27
 34 36  0  0  0  0  0  0  0  0999 V2000
   15.0973   28.4756   36.4372 C   0  0  2  0  0  0  0  0  0  0  0  0
   16.2661   28.3621   35.6191 O   0  0  0  0  0  0  0  0  0  0  0  0
   17.5563   25.1319   33.1085 C   0  0  2  0  0  0  0  0  0  0  0  0
   18.1365   23.8614   32.6527 N   0  0  0  0  0  0  0  0  0  0  0  0
   14.0909   23.6519   33.9380 C   0  0  2  0  0  0  0  0  0  0  0  0
   14.8253   30.0063   36.6898 C   0  0  2  0  0  0  0  0  0  0  0  0
   14.6312   30.7217   35.4184 N   0  0  0  0  0  0  0  0  0  0  0  0
   18.6544   25.8886   33.9396 C   0  0  0  0  0  0  0  0  0  0  0  0
   14.4314   22.1369   34.2284 C   0  0  2  0  0  0  0  0  0  0  0  0
   15.5668   22.0404   35.0711 O   0  0  0  0  0  0  0  0  0  0  0  0
   16.0068   30.6389   37.4852 C   0  0  1  0  0  0  0  0  0  0  0  0
   15.7624   32.0382   37.7182 O   0  0  0  0  0  0  0  0  0  0  0  0
   18.0401   27.2539   34.4096 C   0  0  2  0  0  0  0  0  0  0  0  0
   19.0298   28.0267   35.2133 N   0  0  0  0  0  0  0  0  0  0  0  0
   14.7111   21.4239   32.8515 C   0  0  1  0  0  0  0  0  0  0  0  0
   15.0727   20.0069   33.0567 N   0  0  0  0  0  0  0  0  0  0  0  0
   16.1740   29.8607   38.8114 C   0  0  2  0  0  0  0  0  0  0  0  0
   17.2478   30.4342   39.5638 O   0  0  0  0  0  0  0  0  0  0  0  0
   16.7641   27.0202   35.2736 C   0  0  2  0  0  0  0  0  0  0  0  0
   13.4388   21.5359   31.9532 C   0  0  1  0  0  0  0  0  0  0  0  0
   12.3666   20.8640   32.6061 O   0  0  0  0  0  0  0  0  0  0  0  0
   16.4473   28.3314   38.4760 C   0  0  2  0  0  0  0  0  0  0  0  0
   15.3314   27.7604   37.6895 O   0  0  0  0  0  0  0  0  0  0  0  0
   15.7285   26.2126   34.4449 C   0  0  2  0  0  0  0  0  0  0  0  0
   14.5858   25.9857   35.2674 O   0  0  0  0  0  0  0  0  0  0  0  0
   13.0855   23.0462   31.7642 C   0  0  0  0  0  0  0  0  0  0  0  0
   12.8995   23.7240   33.0696 O   0  0  0  0  0  0  0  0  0  0  0  0
   16.6259   27.4604   39.7527 C   0  0  2  0  0  0  0  0  0  0  0  0
   15.6248   27.8183   40.7118 O   0  0  0  0  0  0  0  0  0  0  0  0
   16.2853   24.8336   34.0130 C   0  0  1  0  0  0  0  0  0  0  0  0
   15.2612   24.1662   33.2252 O   0  0  0  0  0  0  0  0  0  0  0  0
   17.9793   27.6628   40.3977 C   0  0  0  0  0  0  0  0  0  0  0  0
   13.6381   20.8821   30.5851 C   0  0  0  0  0  0  0  0  0  0  0  0
   16.4900   19.8463   32.6487 C   0  0  0  0  0  0  0  0  0  0  0  0
  1  2  1  6  0  0  0
  1  6  1  0  0  0  0
  1 23  1  0  0  0  0
  3  4  1  1  0  0  0
  3  8  1  0  0  0  0
  3 30  1  0  0  0  0
  5  9  1  0  0  0  0
  5 27  1  0  0  0  0
  5 31  1  6  0  0  0
  6  7  1  6  0  0  0
  6 11  1  0  0  0  0
  8 13  1  0  0  0  0
  9 10  1  1  0  0  0
  9 15  1  0  0  0  0
 11 12  1  1  0  0  0
 11 17  1  0  0  0  0
 13 14  1  1  0  0  0
 13 19  1  0  0  0  0
 15 16  1  1  0  0  0
 15 20  1  0  0  0  0
 16 34  1  0  0  0  0
 17 18  1  6  0  0  0
 17 22  1  0  0  0  0
 19  2  1  6  0  0  0
 19 24  1  0  0  0  0
 20 21  1  1  0  0  0
 20 26  1  0  0  0  0
 20 33  1  0  0  0  0
 22 23  1  1  0  0  0
 22 28  1  0  0  0  0
 24 25  1  1  0  0  0
 24 30  1  0  0  0  0
 26 27  1  0  0  0  0
 28 29  1  1  0  0  0
 28 32  1  0  0  0  0
 30 31  1  6  0  0  0
M  END
>  <CHROM.1>
177.93830530,-179.06529864,-113.26604303,43.77925864,171.91164182,-94.78623176
15.68183206,25.79418849,35.26709341,1.37661241,-0.15262104,0.59553582

>  <Name>
ligand

>  <RI>
0

>  <Rbt.Current_Directory>
/home/itssahil/PROJECTS/Mol_Feturizer/New_Systems/rnas/4p3s

>  <Rbt.Executable>
rbdock ($Id: //depot/dev/client3/rdock/2013.1/src/exe/rbdock.cxx#4 $)

>  <Rbt.Library>
libRbt.so (2013.1, Build901 2013/11/27)

>  <Rbt.Parameter_File>
/export/apps/rDock/src/rDock_2013.1_src/data/scripts/dock_solv.prm

>  <Rbt.Receptor>
prm/pocket_docking_7.prm

>  <SCORE>
-14.7894

>  <SCORE.INTER>
-10.955

>  <SCORE.INTER.CONST>
1

>  <SCORE.INTER.POLAR>
0

>  <SCORE.INTER.ROT>
6

>  <SCORE.INTER.SOLV>
13.7552

>  <SCORE.INTER.VDW>
-19.4884

>  <SCORE.INTER.norm>
-0.322206

>  <SCORE.INTRA>
-3.83443

>  <SCORE.INTRA.DIHEDRAL>
-8.85254

>  <SCORE.INTRA.DIHEDRAL.0>
15.8194

>  <SCORE.INTRA.POLAR>
0

>  <SCORE.INTRA.POLAR.0>
0

>  <SCORE.INTRA.REPUL>
0

>  <SCORE.INTRA.REPUL.0>
0

>  <SCORE.INTRA.SOLV>
-0.952997

>  <SCORE.INTRA.SOLV.lig_0>
-71.9159

>  <SCORE.INTRA.VDW>
1.06834

>  <SCORE.INTRA.VDW.0>
-3.53918

>  <SCORE.INTRA.norm>
-0.112777

>  <SCORE.RESTR>
0

>  <SCORE.RESTR.CAVITY>
0

>  <SCORE.RESTR.norm>
0

>  <SCORE.SYSTEM>
0

>  <SCORE.SYSTEM.CONST>
0

>  <SCORE.SYSTEM.DIHEDRAL>
0

>  <SCORE.SYSTEM.SOLV>
0

>  <SCORE.SYSTEM.norm>
0

>  <SCORE.heavy>
34

>  <SCORE.norm>
-0.434984

>  <RMSD>
10.376

$$$$
ligand
 OpenBabel01301917533D
libRbt.so/2013.1/901 2013/11/27
 34 36  0  0  0  0  0  0  0  0999 V2000
   22.4834   32.3125   28.9973 C   0  0  2  0  0  0  0  0  0  0  0  0
   21.2781   32.7979   28.3973 O   0  0  0  0  0  0  0  0  0  0  0  0
   22.2145   36.9839   28.4429 C   0  0  2  0  0  0  0  0  0  0  0  0
   22.2887   38.4040   28.0733 N   0  0  0  0  0  0  0  0  0  0  0  0
   19.2897   38.4291   29.7436 C   0  0  2  0  0  0  0  0  0  0  0  0
   22.1783   30.9053   29.6356 C   0  0  2  0  0  0  0  0  0  0  0  0
   21.6977   29.9594   28.6157 N   0  0  0  0  0  0  0  0  0  0  0  0
   22.7103   36.1425   27.2118 C   0  0  0  0  0  0  0  0  0  0  0  0
   18.3144   38.3307   30.9824 C   0  0  2  0  0  0  0  0  0  0  0  0
   19.0181   38.5912   32.1847 O   0  0  0  0  0  0  0  0  0  0  0  0
   21.1229   31.0478   30.7735 C   0  0  1  0  0  0  0  0  0  0  0  0
   20.8409   29.7636   31.3597 O   0  0  0  0  0  0  0  0  0  0  0  0
   22.6490   34.6271   27.6143 C   0  0  2  0  0  0  0  0  0  0  0  0
   23.1020   33.7647   26.4859 N   0  0  0  0  0  0  0  0  0  0  0  0
   17.7025   36.8792   31.0113 C   0  0  1  0  0  0  0  0  0  0  0  0
   16.8055   36.7093   32.1720 N   0  0  0  0  0  0  0  0  0  0  0  0
   21.6677   32.0459   31.8219 C   0  0  2  0  0  0  0  0  0  0  0  0
   20.7175   32.1820   32.8833 O   0  0  0  0  0  0  0  0  0  0  0  0
   21.1984   34.2162   28.0097 C   0  0  2  0  0  0  0  0  0  0  0  0
   16.9238   36.6289   29.6811 C   0  0  1  0  0  0  0  0  0  0  0  0
   15.8600   37.5716   29.5985 O   0  0  0  0  0  0  0  0  0  0  0  0
   21.9474   33.4372   31.1063 C   0  0  2  0  0  0  0  0  0  0  0  0
   22.9236   33.2732   30.0062 O   0  0  0  0  0  0  0  0  0  0  0  0
   20.7169   35.1121   29.1831 C   0  0  2  0  0  0  0  0  0  0  0  0
   19.3787   34.7376   29.5038 O   0  0  0  0  0  0  0  0  0  0  0  0
   17.9028   36.8229   28.4788 C   0  0  0  0  0  0  0  0  0  0  0  0
   18.5303   38.1659   28.5055 O   0  0  0  0  0  0  0  0  0  0  0  0
   22.5054   34.5120   32.0830 C   0  0  2  0  0  0  0  0  0  0  0  0
   23.5673   33.9415   32.8556 O   0  0  0  0  0  0  0  0  0  0  0  0
   20.7119   36.6122   28.7984 C   0  0  1  0  0  0  0  0  0  0  0  0
   20.2752   37.3691   29.9608 O   0  0  0  0  0  0  0  0  0  0  0  0
   21.4502   35.0133   33.0442 C   0  0  0  0  0  0  0  0  0  0  0  0
   16.3141   35.2276   29.6233 C   0  0  0  0  0  0  0  0  0  0  0  0
   17.2777   35.5239   32.9289 C   0  0  0  0  0  0  0  0  0  0  0  0
  1  2  1  1  0  0  0
  1  6  1  0  0  0  0
  1 23  1  0  0  0  0
  3  4  1  6  0  0  0
  3  8  1  0  0  0  0
  3 30  1  0  0  0  0
  5  9  1  0  0  0  0
  5 27  1  0  0  0  0
  5 31  1  1  0  0  0
  6  7  1  6  0  0  0
  6 11  1  0  0  0  0
  8 13  1  0  0  0  0
  9 10  1  1  0  0  0
  9 15  1  0  0  0  0
 11 12  1  1  0  0  0
 11 17  1  0  0  0  0
 13 14  1  6  0  0  0
 13 19  1  0  0  0  0
 15 16  1  1  0  0  0
 15 20  1  0  0  0  0
 16 34  1  0  0  0  0
 17 18  1  1  0  0  0
 17 22  1  0  0  0  0
 19  2  1  1  0  0  0
 19 24  1  0  0  0  0
 20 21  1  6  0  0  0
 20 26  1  0  0  0  0
 20 33  1  0  0  0  0
 22 23  1  6  0  0  0
 22 28  1  0  0  0  0
 24 25  1  6  0  0  0
 24 30  1  0  0  0  0
 26 27  1  0  0  0  0
 28 29  1  1  0  0  0
 28 32  1  0  0  0  0
 30 31  1  1  0  0  0
M  END
>  <CHROM.1>
165.78994917,31.56200840,-125.29796441,47.54241884,109.40210665,140.53402576
20.37498989,34.94095181,30.03181091,-0.67428950,0.69291937,-0.65974757

>  <Name>
ligand

>  <RI>
0

>  <Rbt.Current_Directory>
/home/itssahil/PROJECTS/Mol_Feturizer/New_Systems/rnas/4p3s

>  <Rbt.Executable>
rbdock ($Id: //depot/dev/client3/rdock/2013.1/src/exe/rbdock.cxx#4 $)

>  <Rbt.Library>
libRbt.so (2013.1, Build901 2013/11/27)

>  <Rbt.Parameter_File>
/export/apps/rDock/src/rDock_2013.1_src/data/scripts/dock_solv.prm

>  <Rbt.Receptor>
prm/blind_docking_100.prm

>  <SCORE>
8.20938

>  <SCORE.INTER>
-1.64538

>  <SCORE.INTER.CONST>
1

>  <SCORE.INTER.POLAR>
0

>  <SCORE.INTER.ROT>
6

>  <SCORE.INTER.SOLV>
18.094

>  <SCORE.INTER.VDW>
-14.7283

>  <SCORE.INTER.norm>
-0.0483936

>  <SCORE.INTRA>
6.07871

>  <SCORE.INTRA.DIHEDRAL>
2.06573

>  <SCORE.INTRA.DIHEDRAL.0>
15.8194

>  <SCORE.INTRA.POLAR>
0

>  <SCORE.INTRA.POLAR.0>
0

>  <SCORE.INTRA.REPUL>
0

>  <SCORE.INTRA.REPUL.0>
0

>  <SCORE.INTRA.SOLV>
1.23491

>  <SCORE.INTRA.SOLV.lig_0>
-71.9159

>  <SCORE.INTRA.VDW>
4.42839

>  <SCORE.INTRA.VDW.0>
-3.53918

>  <SCORE.INTRA.norm>
0.178786

>  <SCORE.RESTR>
3.77606

>  <SCORE.RESTR.CAVITY>
3.77606

>  <SCORE.RESTR.norm>
0.11106

>  <SCORE.SYSTEM>
0

>  <SCORE.SYSTEM.CONST>
0

>  <SCORE.SYSTEM.DIHEDRAL>
0

>  <SCORE.SYSTEM.SOLV>
0

>  <SCORE.SYSTEM.norm>
0

>  <SCORE.heavy>
34

>  <SCORE.norm>
0.241452

>  <RMSD>
10.397

$$$$
ligand
 OpenBabel01301917533D
libRbt.so/2013.1/901 2013/11/27
 34 36  0  0  0  0  0  0  0  0999 V2000
   17.4949   36.6880   32.4275 C   0  0  2  0  0  0  0  0  0  0  0  0
   18.4405   35.8648   33.1177 O   0  0  0  0  0  0  0  0  0  0  0  0
   15.5964   33.0685   34.6971 C   0  0  2  0  0  0  0  0  0  0  0  0
   15.0069   31.8806   35.3295 N   0  0  0  0  0  0  0  0  0  0  0  0
   15.0469   33.3656   37.7795 C   0  0  2  0  0  0  0  0  0  0  0  0
   18.2885   37.6054   31.4228 C   0  0  2  0  0  0  0  0  0  0  0  0
   19.0555   36.7935   30.4644 N   0  0  0  0  0  0  0  0  0  0  0  0
   16.5254   32.5775   33.5287 C   0  0  0  0  0  0  0  0  0  0  0  0
   14.2441   34.2129   38.8439 C   0  0  2  0  0  0  0  0  0  0  0  0
   13.1568   34.8783   38.2246 O   0  0  0  0  0  0  0  0  0  0  0  0
   19.2441   38.5575   32.2032 C   0  0  1  0  0  0  0  0  0  0  0  0
   19.9717   39.3979   31.2885 O   0  0  0  0  0  0  0  0  0  0  0  0
   17.1393   33.8476   32.8416 C   0  0  2  0  0  0  0  0  0  0  0  0
   18.0413   33.4552   31.7214 N   0  0  0  0  0  0  0  0  0  0  0  0
   15.2321   35.2600   39.4840 C   0  0  1  0  0  0  0  0  0  0  0  0
   14.5318   36.1122   40.4661 N   0  0  0  0  0  0  0  0  0  0  0  0
   18.3992   39.3914   33.1945 C   0  0  2  0  0  0  0  0  0  0  0  0
   19.2573   40.2825   33.9139 O   0  0  0  0  0  0  0  0  0  0  0  0
   17.9512   34.6954   33.8670 C   0  0  2  0  0  0  0  0  0  0  0  0
   16.4093   34.4961   40.1686 C   0  0  1  0  0  0  0  0  0  0  0  0
   15.8737   33.6803   41.2054 O   0  0  0  0  0  0  0  0  0  0  0  0
   17.6336   38.4005   34.1734 C   0  0  2  0  0  0  0  0  0  0  0  0
   16.7603   37.4814   33.4099 O   0  0  0  0  0  0  0  0  0  0  0  0
   17.0197   35.1061   35.0396 C   0  0  2  0  0  0  0  0  0  0  0  0
   17.7932   35.8524   35.9769 O   0  0  0  0  0  0  0  0  0  0  0  0
   17.1203   33.6034   39.1013 C   0  0  0  0  0  0  0  0  0  0  0  0
   16.1646   32.6745   38.4518 O   0  0  0  0  0  0  0  0  0  0  0  0
   16.7480   39.1483   35.2110 C   0  0  2  0  0  0  0  0  0  0  0  0
   17.5777   39.9879   36.0215 O   0  0  0  0  0  0  0  0  0  0  0  0
   16.4411   33.8723   35.7754 C   0  0  1  0  0  0  0  0  0  0  0  0
   15.5665   34.3534   36.8328 O   0  0  0  0  0  0  0  0  0  0  0  0
   16.0155   38.1951   36.1295 C   0  0  0  0  0  0  0  0  0  0  0  0
   17.4268   35.4479   40.7992 C   0  0  0  0  0  0  0  0  0  0  0  0
   14.5147   37.4930   39.9240 C   0  0  0  0  0  0  0  0  0  0  0  0
  1  2  1  1  0  0  0
  1  6  1  0  0  0  0
  1 23  1  0  0  0  0
  3  4  1  1  0  0  0
  3  8  1  0  0  0  0
  3 30  1  0  0  0  0
  5  9  1  0  0  0  0
  5 27  1  0  0  0  0
  5 31  1  6  0  0  0
  6  7  1  6  0  0  0
  6 11  1  0  0  0  0
  8 13  1  0  0  0  0
  9 10  1  6  0  0  0
  9 15  1  0  0  0  0
 11 12  1  6  0  0  0
 11 17  1  0  0  0  0
 13 14  1  6  0  0  0
 13 19  1  0  0  0  0
 15 16  1  1  0  0  0
 15 20  1  0  0  0  0
 16 34  1  0  0  0  0
 17 18  1  1  0  0  0
 17 22  1  0  0  0  0
 19  2  1  6  0  0  0
 19 24  1  0  0  0  0
 20 21  1  1  0  0  0
 20 26  1  0  0  0  0
 20 33  1  0  0  0  0
 22 23  1  6  0  0  0
 22 28  1  0  0  0  0
 24 25  1  1  0  0  0
 24 30  1  0  0  0  0
 26 27  1  0  0  0  0
 28 29  1  1  0  0  0
 28 32  1  0  0  0  0
 30 31  1  1  0  0  0
M  END
>  <CHROM.1>
-165.18513909,55.38187243,-113.55135103,-60.94962773,72.67693162,175.67934253
16.81853027,35.85085625,35.71239803,0.14597439,-1.17760060,-2.52031761

>  <Name>
ligand

>  <RI>
0

>  <Rbt.Current_Directory>
/home/itssahil/PROJECTS/Mol_Feturizer/New_Systems/rnas/4p3s

>  <Rbt.Executable>
rbdock ($Id: //depot/dev/client3/rdock/2013.1/src/exe/rbdock.cxx#4 $)

>  <Rbt.Library>
libRbt.so (2013.1, Build901 2013/11/27)

>  <Rbt.Parameter_File>
/export/apps/rDock/src/rDock_2013.1_src/data/scripts/dock_solv.prm

>  <Rbt.Receptor>
prm/pocket_docking_8.prm

>  <SCORE>
-5.97298

>  <SCORE.INTER>
-0.616555

>  <SCORE.INTER.CONST>
1

>  <SCORE.INTER.POLAR>
0

>  <SCORE.INTER.ROT>
6

>  <SCORE.INTER.SOLV>
7.86183

>  <SCORE.INTER.VDW>
-10.6316

>  <SCORE.INTER.norm>
-0.018134

>  <SCORE.INTRA>
-5.35643

>  <SCORE.INTRA.DIHEDRAL>
-12.5591

>  <SCORE.INTRA.DIHEDRAL.0>
15.8194

>  <SCORE.INTRA.POLAR>
0

>  <SCORE.INTRA.POLAR.0>
0

>  <SCORE.INTRA.REPUL>
0

>  <SCORE.INTRA.REPUL.0>
0

>  <SCORE.INTRA.SOLV>
1.4266

>  <SCORE.INTRA.SOLV.lig_0>
-71.9159

>  <SCORE.INTRA.VDW>
0.209818

>  <SCORE.INTRA.VDW.0>
-3.53918

>  <SCORE.INTRA.norm>
-0.157542

>  <SCORE.RESTR>
0

>  <SCORE.RESTR.CAVITY>
0

>  <SCORE.RESTR.norm>
0

>  <SCORE.SYSTEM>
0

>  <SCORE.SYSTEM.CONST>
0

>  <SCORE.SYSTEM.DIHEDRAL>
0

>  <SCORE.SYSTEM.SOLV>
0

>  <SCORE.SYSTEM.norm>
0

>  <SCORE.heavy>
34

>  <SCORE.norm>
-0.175676

>  <RMSD>
10.408

$$$$
ligand
 OpenBabel01301917533D
libRbt.so/2013.1/901 2013/11/27
 34 36  0  0  0  0  0  0  0  0999 V2000
   22.5165   32.4928   29.1202 C   0  0  2  0  0  0  0  0  0  0  0  0
   21.3074   32.9370   28.4965 O   0  0  0  0  0  0  0  0  0  0  0  0
   22.1779   37.1372   28.4469 C   0  0  2  0  0  0  0  0  0  0  0  0
   22.2203   38.5516   28.0514 N   0  0  0  0  0  0  0  0  0  0  0  0
   19.2560   38.5523   29.7979 C   0  0  2  0  0  0  0  0  0  0  0  0
   22.2843   31.0263   29.6455 C   0  0  2  0  0  0  0  0  0  0  0  0
   21.9174   30.1251   28.5413 N   0  0  0  0  0  0  0  0  0  0  0  0
   22.6562   36.2821   27.2184 C   0  0  0  0  0  0  0  0  0  0  0  0
   18.3330   38.4724   31.0774 C   0  0  2  0  0  0  0  0  0  0  0  0
   19.0783   38.7829   32.2421 O   0  0  0  0  0  0  0  0  0  0  0  0
   21.1723   31.0154   30.7375 C   0  0  1  0  0  0  0  0  0  0  0  0
   20.9567   29.6765   31.2204 O   0  0  0  0  0  0  0  0  0  0  0  0
   22.6290   34.7732   27.6481 C   0  0  2  0  0  0  0  0  0  0  0  0
   23.0675   33.8984   26.5235 N   0  0  0  0  0  0  0  0  0  0  0  0
   17.7529   37.0107   31.1738 C   0  0  1  0  0  0  0  0  0  0  0  0
   16.9065   36.8586   32.3743 N   0  0  0  0  0  0  0  0  0  0  0  0
   21.5982   31.9707   31.8768 C   0  0  2  0  0  0  0  0  0  0  0  0
   20.5949   31.9662   32.8973 O   0  0  0  0  0  0  0  0  0  0  0  0
   21.1955   34.3469   28.0868 C   0  0  2  0  0  0  0  0  0  0  0  0
   16.9274   36.7051   29.8841 C   0  0  1  0  0  0  0  0  0  0  0  0
   15.8417   37.6239   29.8167 O   0  0  0  0  0  0  0  0  0  0  0  0
   21.8097   33.4253   31.2722 C   0  0  2  0  0  0  0  0  0  0  0  0
   22.8425   33.4067   30.2125 O   0  0  0  0  0  0  0  0  0  0  0  0
   20.7292   35.2557   29.2565 C   0  0  2  0  0  0  0  0  0  0  0  0
   19.4055   34.8661   29.6171 O   0  0  0  0  0  0  0  0  0  0  0  0
   17.8535   36.8817   28.6381 C   0  0  0  0  0  0  0  0  0  0  0  0
   18.4536   38.2369   28.5998 O   0  0  0  0  0  0  0  0  0  0  0  0
   22.2464   34.4630   32.3459 C   0  0  2  0  0  0  0  0  0  0  0  0
   21.4010   34.3375   33.4947 O   0  0  0  0  0  0  0  0  0  0  0  0
   20.6908   36.7486   28.8464 C   0  0  1  0  0  0  0  0  0  0  0  0
   20.2711   37.5188   30.0063 O   0  0  0  0  0  0  0  0  0  0  0  0
   22.1371   35.8857   31.8432 C   0  0  0  0  0  0  0  0  0  0  0  0
   16.3450   35.2910   29.8923 C   0  0  0  0  0  0  0  0  0  0  0  0
   17.2478   35.5559   32.9966 C   0  0  0  0  0  0  0  0  0  0  0  0
  1  2  1  1  0  0  0
  1  6  1  0  0  0  0
  1 23  1  0  0  0  0
  3  4  1  6  0  0  0
  3  8  1  0  0  0  0
  3 30  1  0  0  0  0
  5  9  1  0  0  0  0
  5 27  1  0  0  0  0
  5 31  1  1  0  0  0
  6  7  1  6  0  0  0
  6 11  1  0  0  0  0
  8 13  1  0  0  0  0
  9 10  1  1  0  0  0
  9 15  1  0  0  0  0
 11 12  1  1  0  0  0
 11 17  1  0  0  0  0
 13 14  1  6  0  0  0
 13 19  1  0  0  0  0
 15 16  1  1  0  0  0
 15 20  1  0  0  0  0
 16 34  1  0  0  0  0
 17 18  1  1  0  0  0
 17 22  1  0  0  0  0
 19  2  1  1  0  0  0
 19 24  1  0  0  0  0
 20 21  1  6  0  0  0
 20 26  1  0  0  0  0
 20 33  1  0  0  0  0
 22 23  1  6  0  0  0
 22 28  1  0  0  0  0
 24 25  1  6  0  0  0
 24 30  1  0  0  0  0
 26 27  1  0  0  0  0
 28 29  1  1  0  0  0
 28 32  1  0  0  0  0
 30 31  1  1  0  0  0
M  END
>  <CHROM.1>
171.52698813,33.89373974,-136.70717460,-47.28977083,109.87754703,141.38822586
20.31738740,35.06107569,30.09395772,-0.71623181,0.71930918,-0.59141621

>  <Name>
ligand

>  <RI>
0

>  <Rbt.Current_Directory>
/home/itssahil/PROJECTS/Mol_Feturizer/New_Systems/rnas/4p3s

>  <Rbt.Executable>
rbdock ($Id: //depot/dev/client3/rdock/2013.1/src/exe/rbdock.cxx#4 $)

>  <Rbt.Library>
libRbt.so (2013.1, Build901 2013/11/27)

>  <Rbt.Parameter_File>
/export/apps/rDock/src/rDock_2013.1_src/data/scripts/dock_solv.prm

>  <Rbt.Receptor>
prm/blind_docking_100.prm

>  <SCORE>
8.69974

>  <SCORE.INTER>
-0.708213

>  <SCORE.INTER.CONST>
1

>  <SCORE.INTER.POLAR>
0

>  <SCORE.INTER.ROT>
6

>  <SCORE.INTER.SOLV>
17.2035

>  <SCORE.INTER.VDW>
-13.8066

>  <SCORE.INTER.norm>
-0.0208298

>  <SCORE.INTRA>
5.62519

>  <SCORE.INTRA.DIHEDRAL>
0.8022

>  <SCORE.INTRA.DIHEDRAL.0>
15.8194

>  <SCORE.INTRA.POLAR>
0

>  <SCORE.INTRA.POLAR.0>
0

>  <SCORE.INTRA.REPUL>
0

>  <SCORE.INTRA.REPUL.0>
0

>  <SCORE.INTRA.SOLV>
1.2064

>  <SCORE.INTRA.SOLV.lig_0>
-71.9159

>  <SCORE.INTRA.VDW>
4.62089

>  <SCORE.INTRA.VDW.0>
-3.53918

>  <SCORE.INTRA.norm>
0.165447

>  <SCORE.RESTR>
3.78276

>  <SCORE.RESTR.CAVITY>
3.78276

>  <SCORE.RESTR.norm>
0.111258

>  <SCORE.SYSTEM>
0

>  <SCORE.SYSTEM.CONST>
0

>  <SCORE.SYSTEM.DIHEDRAL>
0

>  <SCORE.SYSTEM.SOLV>
0

>  <SCORE.SYSTEM.norm>
0

>  <SCORE.heavy>
34

>  <SCORE.norm>
0.255875

>  <RMSD>
10.419

$$$$
ligand
 OpenBabel01301917533D
libRbt.so/2013.1/901 2013/11/27
 34 36  0  0  0  0  0  0  0  0999 V2000
   20.1846   32.9505   32.6805 C   0  0  2  0  0  0  0  0  0  0  0  0
   19.8670   34.3030   33.0240 O   0  0  0  0  0  0  0  0  0  0  0  0
   17.8020   35.2731   29.3913 C   0  0  2  0  0  0  0  0  0  0  0  0
   16.9323   35.9403   28.4130 N   0  0  0  0  0  0  0  0  0  0  0  0
   19.7549   37.8785   28.0613 C   0  0  2  0  0  0  0  0  0  0  0  0
   21.2607   32.4268   33.7045 C   0  0  2  0  0  0  0  0  0  0  0  0
   20.7514   32.4983   35.0835 N   0  0  0  0  0  0  0  0  0  0  0  0
   16.9299   34.9332   30.6535 C   0  0  0  0  0  0  0  0  0  0  0  0
   20.7643   37.8551   26.8464 C   0  0  2  0  0  0  0  0  0  0  0  0
   20.3318   36.9288   25.8648 O   0  0  0  0  0  0  0  0  0  0  0  0
   22.5746   33.2551   33.5754 C   0  0  1  0  0  0  0  0  0  0  0  0
   23.5610   32.7798   34.5099 O   0  0  0  0  0  0  0  0  0  0  0  0
   17.8550   34.2034   31.6898 C   0  0  2  0  0  0  0  0  0  0  0  0
   17.0915   33.8546   32.9217 N   0  0  0  0  0  0  0  0  0  0  0  0
   22.1835   37.4464   27.3951 C   0  0  1  0  0  0  0  0  0  0  0  0
   23.1698   37.3703   26.2986 N   0  0  0  0  0  0  0  0  0  0  0  0
   23.0752   33.1511   32.1157 C   0  0  2  0  0  0  0  0  0  0  0  0
   24.2894   33.8959   31.9783 O   0  0  0  0  0  0  0  0  0  0  0  0
   19.0635   35.1046   32.0859 C   0  0  2  0  0  0  0  0  0  0  0  0
   22.6367   38.4922   28.4625 C   0  0  1  0  0  0  0  0  0  0  0  0
   22.7401   39.7639   27.8305 O   0  0  0  0  0  0  0  0  0  0  0  0
   21.9413   33.6985   31.1459 C   0  0  2  0  0  0  0  0  0  0  0  0
   20.6920   32.9224   31.3107 O   0  0  0  0  0  0  0  0  0  0  0  0
   19.8630   35.4756   30.8075 C   0  0  2  0  0  0  0  0  0  0  0  0
   20.9424   36.3242   31.1930 O   0  0  0  0  0  0  0  0  0  0  0  0
   21.5675   38.5477   29.6006 C   0  0  0  0  0  0  0  0  0  0  0  0
   20.2217   38.8583   29.0618 O   0  0  0  0  0  0  0  0  0  0  0  0
   22.3508   33.6307   29.6465 C   0  0  2  0  0  0  0  0  0  0  0  0
   21.1845   33.7900   28.8313 O   0  0  0  0  0  0  0  0  0  0  0  0
   18.9916   36.2482   29.7866 C   0  0  1  0  0  0  0  0  0  0  0  0
   19.8134   36.5269   28.6197 O   0  0  0  0  0  0  0  0  0  0  0  0
   22.9897   32.3071   29.2880 C   0  0  0  0  0  0  0  0  0  0  0  0
   24.0029   38.1531   29.0601 C   0  0  0  0  0  0  0  0  0  0  0  0
   23.0746   36.0125   25.7086 C   0  0  0  0  0  0  0  0  0  0  0  0
  1  2  1  1  0  0  0
  1  6  1  0  0  0  0
  1 23  1  0  0  0  0
  3  4  1  6  0  0  0
  3  8  1  0  0  0  0
  3 30  1  0  0  0  0
  5  9  1  0  0  0  0
  5 27  1  0  0  0  0
  5 31  1  1  0  0  0
  6  7  1  1  0  0  0
  6 11  1  0  0  0  0
  8 13  1  0  0  0  0
  9 10  1  6  0  0  0
  9 15  1  0  0  0  0
 11 12  1  1  0  0  0
 11 17  1  0  0  0  0
 13 14  1  1  0  0  0
 13 19  1  0  0  0  0
 15 16  1  6  0  0  0
 15 20  1  0  0  0  0
 16 34  1  0  0  0  0
 17 18  1  1  0  0  0
 17 22  1  0  0  0  0
 19  2  1  1  0  0  0
 19 24  1  0  0  0  0
 20 21  1  6  0  0  0
 20 26  1  0  0  0  0
 20 33  1  0  0  0  0
 22 23  1  6  0  0  0
 22 28  1  0  0  0  0
 24 25  1  1  0  0  0
 24 30  1  0  0  0  0
 26 27  1  0  0  0  0
 28 29  1  6  0  0  0
 28 32  1  0  0  0  0
 30 31  1  6  0  0  0
M  END
>  <CHROM.1>
169.39262667,47.85874546,-85.77915071,164.58581239,109.96698130,178.94369407
20.93337244,35.38769212,30.17719994,1.64548448,-0.07129743,2.26728996

>  <Name>
ligand

>  <RI>
0

>  <Rbt.Current_Directory>
/home/itssahil/PROJECTS/Mol_Feturizer/New_Systems/rnas/4p3s

>  <Rbt.Executable>
rbdock ($Id: //depot/dev/client3/rdock/2013.1/src/exe/rbdock.cxx#4 $)

>  <Rbt.Library>
libRbt.so (2013.1, Build901 2013/11/27)

>  <Rbt.Parameter_File>
/export/apps/rDock/src/rDock_2013.1_src/data/scripts/dock_solv.prm

>  <Rbt.Receptor>
prm/blind_docking_100.prm

>  <SCORE>
5.97977

>  <SCORE.INTER>
1.82555

>  <SCORE.INTER.CONST>
1

>  <SCORE.INTER.POLAR>
0

>  <SCORE.INTER.ROT>
6

>  <SCORE.INTER.SOLV>
12.0222

>  <SCORE.INTER.VDW>
-10.3904

>  <SCORE.INTER.norm>
0.0536925

>  <SCORE.INTRA>
0.43481

>  <SCORE.INTRA.DIHEDRAL>
-6.59365

>  <SCORE.INTRA.DIHEDRAL.0>
15.8194

>  <SCORE.INTRA.POLAR>
0

>  <SCORE.INTRA.POLAR.0>
0

>  <SCORE.INTRA.REPUL>
0.00534023

>  <SCORE.INTRA.REPUL.0>
0

>  <SCORE.INTRA.SOLV>
0.719374

>  <SCORE.INTRA.SOLV.lig_0>
-71.9159

>  <SCORE.INTRA.VDW>
3.34525

>  <SCORE.INTRA.VDW.0>
-3.53918

>  <SCORE.INTRA.norm>
0.0127885

>  <SCORE.RESTR>
3.71942

>  <SCORE.RESTR.CAVITY>
3.71942

>  <SCORE.RESTR.norm>
0.109395

>  <SCORE.SYSTEM>
0

>  <SCORE.SYSTEM.CONST>
0

>  <SCORE.SYSTEM.DIHEDRAL>
0

>  <SCORE.SYSTEM.SOLV>
0

>  <SCORE.SYSTEM.norm>
0

>  <SCORE.heavy>
34

>  <SCORE.norm>
0.175876

>  <RMSD>
10.426

$$$$
ligand
 OpenBabel01301917533D
libRbt.so/2013.1/901 2013/11/27
 34 36  0  0  0  0  0  0  0  0999 V2000
   19.8001   33.2404   31.0461 C   0  0  2  0  0  0  0  0  0  0  0  0
   19.0174   33.9631   32.0018 O   0  0  0  0  0  0  0  0  0  0  0  0
   18.0107   37.4418   29.7024 C   0  0  2  0  0  0  0  0  0  0  0  0
   17.5911   38.8008   29.3340 N   0  0  0  0  0  0  0  0  0  0  0  0
   21.2938   37.0919   28.9365 C   0  0  2  0  0  0  0  0  0  0  0  0
   19.3541   31.7306   31.0918 C   0  0  2  0  0  0  0  0  0  0  0  0
   17.9210   31.5971   30.7849 N   0  0  0  0  0  0  0  0  0  0  0  0
   16.8901   36.8260   30.6158 C   0  0  0  0  0  0  0  0  0  0  0  0
   22.2024   37.9762   27.9943 C   0  0  2  0  0  0  0  0  0  0  0  0
   23.0027   38.8552   28.7659 O   0  0  0  0  0  0  0  0  0  0  0  0
   19.6607   31.1209   32.4930 C   0  0  1  0  0  0  0  0  0  0  0  0
   19.2544   29.7407   32.5392 O   0  0  0  0  0  0  0  0  0  0  0  0
   17.3300   35.3678   30.9928 C   0  0  2  0  0  0  0  0  0  0  0  0
   16.3113   34.7211   31.8683 N   0  0  0  0  0  0  0  0  0  0  0  0
   21.2611   38.7964   27.0333 C   0  0  1  0  0  0  0  0  0  0  0  0
   22.0508   39.6749   26.1469 N   0  0  0  0  0  0  0  0  0  0  0  0
   21.1734   31.2797   32.7736 C   0  0  2  0  0  0  0  0  0  0  0  0
   21.4787   30.7144   34.0524 O   0  0  0  0  0  0  0  0  0  0  0  0
   18.6995   35.3763   31.7371 C   0  0  2  0  0  0  0  0  0  0  0  0
   20.4042   37.8008   26.1891 C   0  0  1  0  0  0  0  0  0  0  0  0
   21.2842   37.0076   25.3992 O   0  0  0  0  0  0  0  0  0  0  0  0
   21.5453   32.8237   32.7137 C   0  0  2  0  0  0  0  0  0  0  0  0
   21.2125   33.3913   31.3881 O   0  0  0  0  0  0  0  0  0  0  0  0
   19.7665   36.0515   30.8331 C   0  0  2  0  0  0  0  0  0  0  0  0
   20.9999   36.0746   31.5486 O   0  0  0  0  0  0  0  0  0  0  0  0
   19.5893   36.8870   27.1600 C   0  0  0  0  0  0  0  0  0  0  0  0
   20.4808   36.1786   28.1095 O   0  0  0  0  0  0  0  0  0  0  0  0
   23.0552   33.0873   32.9802 C   0  0  2  0  0  0  0  0  0  0  0  0
   23.3104   32.9893   34.3857 O   0  0  0  0  0  0  0  0  0  0  0  0
   19.3886   37.5133   30.4889 C   0  0  1  0  0  0  0  0  0  0  0  0
   20.4267   38.0501   29.6235 O   0  0  0  0  0  0  0  0  0  0  0  0
   23.4834   34.4655   32.5263 C   0  0  0  0  0  0  0  0  0  0  0  0
   19.4458   38.5231   25.2412 C   0  0  0  0  0  0  0  0  0  0  0  0
   21.8574   41.0690   26.6159 C   0  0  0  0  0  0  0  0  0  0  0  0
  1  2  1  1  0  0  0
  1  6  1  0  0  0  0
  1 23  1  0  0  0  0
  3  4  1  1  0  0  0
  3  8  1  0  0  0  0
  3 30  1  0  0  0  0
  5  9  1  0  0  0  0
  5 27  1  0  0  0  0
  5 31  1  6  0  0  0
  6  7  1  1  0  0  0
  6 11  1  0  0  0  0
  8 13  1  0  0  0  0
  9 10  1  1  0  0  0
  9 15  1  0  0  0  0
 11 12  1  6  0  0  0
 11 17  1  0  0  0  0
 13 14  1  1  0  0  0
 13 19  1  0  0  0  0
 15 16  1  6  0  0  0
 15 20  1  0  0  0  0
 16 34  1  0  0  0  0
 17 18  1  1  0  0  0
 17 22  1  0  0  0  0
 19  2  1  6  0  0  0
 19 24  1  0  0  0  0
 20 21  1  6  0  0  0
 20 26  1  0  0  0  0
 20 33  1  0  0  0  0
 22 23  1  6  0  0  0
 22 28  1  0  0  0  0
 24 25  1  1  0  0  0
 24 30  1  0  0  0  0
 26 27  1  0  0  0  0
 28 29  1  1  0  0  0
 28 32  1  0  0  0  0
 30 31  1  6  0  0  0
M  END
>  <CHROM.1>
-149.10636553,91.93797782,-107.45942868,-77.48944087,-96.53160832,174.94685852
20.29413707,35.46775033,30.16193667,1.59920221,0.08132731,2.44246772

>  <Name>
ligand

>  <RI>
0

>  <Rbt.Current_Directory>
/home/itssahil/PROJECTS/Mol_Feturizer/New_Systems/rnas/4p3s

>  <Rbt.Executable>
rbdock ($Id: //depot/dev/client3/rdock/2013.1/src/exe/rbdock.cxx#4 $)

>  <Rbt.Library>
libRbt.so (2013.1, Build901 2013/11/27)

>  <Rbt.Parameter_File>
/export/apps/rDock/src/rDock_2013.1_src/data/scripts/dock_solv.prm

>  <Rbt.Receptor>
prm/blind_docking_100.prm

>  <SCORE>
5.35178

>  <SCORE.INTER>
-0.123973

>  <SCORE.INTER.CONST>
1

>  <SCORE.INTER.POLAR>
0

>  <SCORE.INTER.ROT>
6

>  <SCORE.INTER.SOLV>
23.9061

>  <SCORE.INTER.VDW>
-15.6513

>  <SCORE.INTER.norm>
-0.00364626

>  <SCORE.INTRA>
4.61265

>  <SCORE.INTRA.DIHEDRAL>
-1.03996

>  <SCORE.INTRA.DIHEDRAL.0>
15.8194

>  <SCORE.INTRA.POLAR>
0

>  <SCORE.INTRA.POLAR.0>
0

>  <SCORE.INTRA.REPUL>
0.0057127

>  <SCORE.INTRA.REPUL.0>
0

>  <SCORE.INTRA.SOLV>
1.45649

>  <SCORE.INTRA.SOLV.lig_0>
-71.9159

>  <SCORE.INTRA.VDW>
4.37582

>  <SCORE.INTRA.VDW.0>
-3.53918

>  <SCORE.INTRA.norm>
0.135666

>  <SCORE.RESTR>
0.863101

>  <SCORE.RESTR.CAVITY>
0.863101

>  <SCORE.RESTR.norm>
0.0253853

>  <SCORE.SYSTEM>
0

>  <SCORE.SYSTEM.CONST>
0

>  <SCORE.SYSTEM.DIHEDRAL>
0

>  <SCORE.SYSTEM.SOLV>
0

>  <SCORE.SYSTEM.norm>
0

>  <SCORE.heavy>
34

>  <SCORE.norm>
0.157405

>  <RMSD>
10.451

$$$$
ligand
 OpenBabel01301917533D
libRbt.so/2013.1/901 2013/11/27
 34 36  0  0  0  0  0  0  0  0999 V2000
   20.2055   32.9810   32.6658 C   0  0  2  0  0  0  0  0  0  0  0  0
   19.8900   34.3386   32.9910 O   0  0  0  0  0  0  0  0  0  0  0  0
   17.7992   35.2542   29.3589 C   0  0  2  0  0  0  0  0  0  0  0  0
   16.9209   35.9055   28.3775 N   0  0  0  0  0  0  0  0  0  0  0  0
   19.7517   37.8568   27.9981 C   0  0  2  0  0  0  0  0  0  0  0  0
   21.2784   32.4685   33.6987 C   0  0  2  0  0  0  0  0  0  0  0  0
   20.7665   32.5590   35.0756 N   0  0  0  0  0  0  0  0  0  0  0  0
   16.9361   34.9271   30.6306 C   0  0  0  0  0  0  0  0  0  0  0  0
   20.7602   37.8237   26.7827 C   0  0  2  0  0  0  0  0  0  0  0  0
   20.3205   36.8986   25.8033 O   0  0  0  0  0  0  0  0  0  0  0  0
   22.5942   33.2923   33.5614 C   0  0  1  0  0  0  0  0  0  0  0  0
   23.5778   32.8272   34.5041 O   0  0  0  0  0  0  0  0  0  0  0  0
   17.8703   34.2141   31.6704 C   0  0  2  0  0  0  0  0  0  0  0  0
   17.1157   33.8780   32.9114 N   0  0  0  0  0  0  0  0  0  0  0  0
   22.1768   37.4060   27.3314 C   0  0  1  0  0  0  0  0  0  0  0  0
   23.1618   37.3206   26.2345 N   0  0  0  0  0  0  0  0  0  0  0  0
   23.0976   33.1682   32.1043 C   0  0  2  0  0  0  0  0  0  0  0  0
   24.3136   33.9087   31.9596 O   0  0  0  0  0  0  0  0  0  0  0  0
   19.0776   35.1250   32.0477 C   0  0  2  0  0  0  0  0  0  0  0  0
   22.6380   38.4507   28.3964 C   0  0  1  0  0  0  0  0  0  0  0  0
   22.7502   39.7204   27.7618 O   0  0  0  0  0  0  0  0  0  0  0  0
   21.9667   33.7053   31.1251 C   0  0  2  0  0  0  0  0  0  0  0  0
   20.7155   32.9340   31.2975 O   0  0  0  0  0  0  0  0  0  0  0  0
   19.8679   35.4828   30.7598 C   0  0  2  0  0  0  0  0  0  0  0  0
   20.9462   36.3405   31.1279 O   0  0  0  0  0  0  0  0  0  0  0  0
   21.5700   38.5162   29.5350 C   0  0  0  0  0  0  0  0  0  0  0  0
   20.2261   38.8353   28.9963 O   0  0  0  0  0  0  0  0  0  0  0  0
   22.3790   33.6171   29.6276 C   0  0  2  0  0  0  0  0  0  0  0  0
   21.2123   33.7507   28.8084 O   0  0  0  0  0  0  0  0  0  0  0  0
   18.9873   36.2389   29.7345 C   0  0  1  0  0  0  0  0  0  0  0  0
   19.8009   36.5059   28.5592 O   0  0  0  0  0  0  0  0  0  0  0  0
   23.0322   32.2946   29.2918 C   0  0  0  0  0  0  0  0  0  0  0  0
   24.0022   38.1031   28.9940 C   0  0  0  0  0  0  0  0  0  0  0  0
   23.1604   35.9207   25.7438 C   0  0  0  0  0  0  0  0  0  0  0  0
  1  2  1  1  0  0  0
  1  6  1  0  0  0  0
  1 23  1  0  0  0  0
  3  4  1  6  0  0  0
  3  8  1  0  0  0  0
  3 30  1  0  0  0  0
  5  9  1  0  0  0  0
  5 27  1  0  0  0  0
  5 31  1  1  0  0  0
  6  7  1  1  0  0  0
  6 11  1  0  0  0  0
  8 13  1  0  0  0  0
  9 10  1  6  0  0  0
  9 15  1  0  0  0  0
 11 12  1  1  0  0  0
 11 17  1  0  0  0  0
 13 14  1  1  0  0  0
 13 19  1  0  0  0  0
 15 16  1  6  0  0  0
 15 20  1  0  0  0  0
 16 34  1  0  0  0  0
 17 18  1  1  0  0  0
 17 22  1  0  0  0  0
 19  2  1  1  0  0  0
 19 24  1  0  0  0  0
 20 21  1  6  0  0  0
 20 26  1  0  0  0  0
 20 33  1  0  0  0  0
 22 23  1  6  0  0  0
 22 28  1  0  0  0  0
 24 25  1  1  0  0  0
 24 30  1  0  0  0  0
 26 27  1  0  0  0  0
 28 29  1  6  0  0  0
 28 32  1  0  0  0  0
 30 31  1  6  0  0  0
M  END
>  <CHROM.1>
170.05140024,47.55957734,-91.75902539,163.83917879,111.02075944,178.38782025
20.94579844,35.38063373,30.14245367,1.64103467,-0.07497606,2.25613564

>  <Name>
ligand

>  <RI>
0

>  <Rbt.Current_Directory>
/home/itssahil/PROJECTS/Mol_Feturizer/New_Systems/rnas/4p3s

>  <Rbt.Executable>
rbdock ($Id: //depot/dev/client3/rdock/2013.1/src/exe/rbdock.cxx#4 $)

>  <Rbt.Library>
libRbt.so (2013.1, Build901 2013/11/27)

>  <Rbt.Parameter_File>
/export/apps/rDock/src/rDock_2013.1_src/data/scripts/dock_solv.prm

>  <Rbt.Receptor>
prm/blind_docking_100.prm

>  <SCORE>
6.04227

>  <SCORE.INTER>
2.28648

>  <SCORE.INTER.CONST>
1

>  <SCORE.INTER.POLAR>
0

>  <SCORE.INTER.ROT>
6

>  <SCORE.INTER.SOLV>
12.1473

>  <SCORE.INTER.VDW>
-10.1248

>  <SCORE.INTER.norm>
0.0672496

>  <SCORE.INTRA>
0.0892233

>  <SCORE.INTRA.DIHEDRAL>
-6.26026

>  <SCORE.INTRA.DIHEDRAL.0>
15.8194

>  <SCORE.INTRA.POLAR>
0

>  <SCORE.INTRA.POLAR.0>
0

>  <SCORE.INTRA.REPUL>
0

>  <SCORE.INTRA.REPUL.0>
0

>  <SCORE.INTRA.SOLV>
0.661601

>  <SCORE.INTRA.SOLV.lig_0>
-71.9159

>  <SCORE.INTRA.VDW>
2.88855

>  <SCORE.INTRA.VDW.0>
-3.53918

>  <SCORE.INTRA.norm>
0.00262421

>  <SCORE.RESTR>
3.66657

>  <SCORE.RESTR.CAVITY>
3.66657

>  <SCORE.RESTR.norm>
0.10784

>  <SCORE.SYSTEM>
0

>  <SCORE.SYSTEM.CONST>
0

>  <SCORE.SYSTEM.DIHEDRAL>
0

>  <SCORE.SYSTEM.SOLV>
0

>  <SCORE.SYSTEM.norm>
0

>  <SCORE.heavy>
34

>  <SCORE.norm>
0.177714

>  <RMSD>
10.452

$$$$
ligand
 OpenBabel01301917533D
libRbt.so/2013.1/901 2013/11/27
 34 36  0  0  0  0  0  0  0  0999 V2000
   20.1957   33.2345   30.2225 C   0  0  2  0  0  0  0  0  0  0  0  0
   18.9221   33.5928   30.7681 O   0  0  0  0  0  0  0  0  0  0  0  0
   18.1082   36.8446   28.0913 C   0  0  2  0  0  0  0  0  0  0  0  0
   17.4403   37.9649   27.4149 N   0  0  0  0  0  0  0  0  0  0  0  0
   20.6394   38.1676   30.2979 C   0  0  2  0  0  0  0  0  0  0  0  0
   20.2320   31.6687   30.0559 C   0  0  2  0  0  0  0  0  0  0  0  0
   19.1491   31.2097   29.1713 N   0  0  0  0  0  0  0  0  0  0  0  0
   17.1319   35.6138   28.0564 C   0  0  0  0  0  0  0  0  0  0  0  0
   21.5115   39.4230   29.8997 C   0  0  2  0  0  0  0  0  0  0  0  0
   20.9105   40.6127   30.3814 O   0  0  0  0  0  0  0  0  0  0  0  0
   20.1163   30.9765   31.4475 C   0  0  1  0  0  0  0  0  0  0  0  0
   20.1489   29.5449   31.2998 O   0  0  0  0  0  0  0  0  0  0  0  0
   17.8538   34.4124   28.7618 C   0  0  2  0  0  0  0  0  0  0  0  0
   16.9789   33.2054   28.7709 N   0  0  0  0  0  0  0  0  0  0  0  0
   21.6230   39.4649   28.3287 C   0  0  1  0  0  0  0  0  0  0  0  0
   22.3993   40.6412   27.8874 N   0  0  0  0  0  0  0  0  0  0  0  0
   21.2714   31.4838   32.3422 C   0  0  2  0  0  0  0  0  0  0  0  0
   21.1906   30.8502   33.6228 O   0  0  0  0  0  0  0  0  0  0  0  0
   18.2261   34.7742   30.2315 C   0  0  2  0  0  0  0  0  0  0  0  0
   22.3003   38.1487   27.8316 C   0  0  1  0  0  0  0  0  0  0  0  0
   23.6122   38.0826   28.3811 O   0  0  0  0  0  0  0  0  0  0  0  0
   21.1664   33.0649   32.4651 C   0  0  2  0  0  0  0  0  0  0  0  0
   21.2415   33.6999   31.1305 O   0  0  0  0  0  0  0  0  0  0  0  0
   19.1353   36.0331   30.2316 C   0  0  2  0  0  0  0  0  0  0  0  0
   19.4348   36.3607   31.5869 O   0  0  0  0  0  0  0  0  0  0  0  0
   21.4548   36.9295   28.3218 C   0  0  0  0  0  0  0  0  0  0  0  0
   21.2928   36.9431   29.7954 O   0  0  0  0  0  0  0  0  0  0  0  0
   22.2941   33.6737   33.3472 C   0  0  2  0  0  0  0  0  0  0  0  0
   21.8756   34.9551   33.8299 O   0  0  0  0  0  0  0  0  0  0  0  0
   18.4294   37.2540   29.5918 C   0  0  1  0  0  0  0  0  0  0  0  0
   19.3617   38.3697   29.6131 O   0  0  0  0  0  0  0  0  0  0  0  0
   23.5813   33.8667   32.5761 C   0  0  0  0  0  0  0  0  0  0  0  0
   22.4272   38.1038   26.3082 C   0  0  0  0  0  0  0  0  0  0  0  0
   21.7231   41.1959   26.6891 C   0  0  0  0  0  0  0  0  0  0  0  0
  1  2  1  1  0  0  0
  1  6  1  0  0  0  0
  1 23  1  0  0  0  0
  3  4  1  6  0  0  0
  3  8  1  0  0  0  0
  3 30  1  0  0  0  0
  5  9  1  0  0  0  0
  5 27  1  0  0  0  0
  5 31  1  6  0  0  0
  6  7  1  6  0  0  0
  6 11  1  0  0  0  0
  8 13  1  0  0  0  0
  9 10  1  6  0  0  0
  9 15  1  0  0  0  0
 11 12  1  6  0  0  0
 11 17  1  0  0  0  0
 13 14  1  1  0  0  0
 13 19  1  0  0  0  0
 15 16  1  1  0  0  0
 15 20  1  0  0  0  0
 16 34  1  0  0  0  0
 17 18  1  1  0  0  0
 17 22  1  0  0  0  0
 19  2  1  6  0  0  0
 19 24  1  0  0  0  0
 20 21  1  1  0  0  0
 20 26  1  0  0  0  0
 20 33  1  0  0  0  0
 22 23  1  6  0  0  0
 22 28  1  0  0  0  0
 24 25  1  1  0  0  0
 24 30  1  0  0  0  0
 26 27  1  0  0  0  0
 28 29  1  6  0  0  0
 28 32  1  0  0  0  0
 30 31  1  6  0  0  0
M  END
>  <CHROM.1>
-138.16264989,66.55258024,-139.35028512,-158.15848627,-120.68631837,169.10740792
20.42582328,35.60600477,29.99525588,1.67378895,0.56158417,2.65425823

>  <Name>
ligand

>  <RI>
0

>  <Rbt.Current_Directory>
/home/itssahil/PROJECTS/Mol_Feturizer/New_Systems/rnas/4p3s

>  <Rbt.Executable>
rbdock ($Id: //depot/dev/client3/rdock/2013.1/src/exe/rbdock.cxx#4 $)

>  <Rbt.Library>
libRbt.so (2013.1, Build901 2013/11/27)

>  <Rbt.Parameter_File>
/export/apps/rDock/src/rDock_2013.1_src/data/scripts/dock_solv.prm

>  <Rbt.Receptor>
prm/blind_docking_100.prm

>  <SCORE>
18.9671

>  <SCORE.INTER>
0.910876

>  <SCORE.INTER.CONST>
1

>  <SCORE.INTER.POLAR>
0

>  <SCORE.INTER.ROT>
6

>  <SCORE.INTER.SOLV>
20.6482

>  <SCORE.INTER.VDW>
-13.8755

>  <SCORE.INTER.norm>
0.0267905

>  <SCORE.INTRA>
14.9157

>  <SCORE.INTRA.DIHEDRAL>
0.338936

>  <SCORE.INTRA.DIHEDRAL.0>
15.8194

>  <SCORE.INTRA.POLAR>
0

>  <SCORE.INTRA.POLAR.0>
0

>  <SCORE.INTRA.REPUL>
0.576916

>  <SCORE.INTRA.REPUL.0>
0

>  <SCORE.INTRA.SOLV>
1.8418

>  <SCORE.INTRA.SOLV.lig_0>
-71.9159

>  <SCORE.INTRA.VDW>
10.9408

>  <SCORE.INTRA.VDW.0>
-3.53918

>  <SCORE.INTRA.norm>
0.438698

>  <SCORE.RESTR>
3.14053

>  <SCORE.RESTR.CAVITY>
3.14053

>  <SCORE.RESTR.norm>
0.0923685

>  <SCORE.SYSTEM>
0

>  <SCORE.SYSTEM.CONST>
0

>  <SCORE.SYSTEM.DIHEDRAL>
0

>  <SCORE.SYSTEM.SOLV>
0

>  <SCORE.SYSTEM.norm>
0

>  <SCORE.heavy>
34

>  <SCORE.norm>
0.557857

>  <RMSD>
10.494

$$$$
ligand
 OpenBabel01301917533D
libRbt.so/2013.1/901 2013/11/27
 34 36  0  0  0  0  0  0  0  0999 V2000
   17.4314   28.6323   35.6193 C   0  0  2  0  0  0  0  0  0  0  0  0
   17.0077   27.9017   34.4639 O   0  0  0  0  0  0  0  0  0  0  0  0
   17.5319   23.9774   32.8126 C   0  0  2  0  0  0  0  0  0  0  0  0
   17.7873   22.5359   32.6876 N   0  0  0  0  0  0  0  0  0  0  0  0
   13.8242   23.4223   33.6561 C   0  0  2  0  0  0  0  0  0  0  0  0
   16.2788   28.5627   36.6904 C   0  0  2  0  0  0  0  0  0  0  0  0
   15.9792   27.1671   37.0491 N   0  0  0  0  0  0  0  0  0  0  0  0
   18.7526   24.6159   33.5684 C   0  0  0  0  0  0  0  0  0  0  0  0
   13.9798   21.9788   34.2785 C   0  0  2  0  0  0  0  0  0  0  0  0
   15.0745   21.9460   35.1780 O   0  0  0  0  0  0  0  0  0  0  0  0
   14.9966   29.2631   36.1477 C   0  0  1  0  0  0  0  0  0  0  0  0
   13.9402   29.2015   37.1238 O   0  0  0  0  0  0  0  0  0  0  0  0
   18.4879   26.1583   33.6843 C   0  0  2  0  0  0  0  0  0  0  0  0
   19.6089   26.8318   34.3999 N   0  0  0  0  0  0  0  0  0  0  0  0
   14.2103   20.9584   33.1004 C   0  0  1  0  0  0  0  0  0  0  0  0
   14.4004   19.5891   33.6198 N   0  0  0  0  0  0  0  0  0  0  0  0
   15.3546   30.7236   35.7863 C   0  0  2  0  0  0  0  0  0  0  0  0
   14.1862   31.3893   35.2966 O   0  0  0  0  0  0  0  0  0  0  0  0
   17.1612   26.4373   34.4534 C   0  0  2  0  0  0  0  0  0  0  0  0
   12.9829   21.0088   32.1364 C   0  0  1  0  0  0  0  0  0  0  0  0
   11.8239   20.6136   32.8629 O   0  0  0  0  0  0  0  0  0  0  0  0
   16.5175   30.7121   34.7030 C   0  0  2  0  0  0  0  0  0  0  0  0
   17.7118   30.0108   35.2244 O   0  0  0  0  0  0  0  0  0  0  0  0
   15.9878   25.7363   33.7163 C   0  0  2  0  0  0  0  0  0  0  0  0
   14.7934   25.9806   34.4561 O   0  0  0  0  0  0  0  0  0  0  0  0
   12.8114   22.4712   31.6134 C   0  0  0  0  0  0  0  0  0  0  0  0
   12.6717   23.4319   32.7339 O   0  0  0  0  0  0  0  0  0  0  0  0
   16.9531   32.1432   34.2759 C   0  0  2  0  0  0  0  0  0  0  0  0
   15.7977   32.8886   33.8764 O   0  0  0  0  0  0  0  0  0  0  0  0
   16.1921   24.2033   33.6349 C   0  0  1  0  0  0  0  0  0  0  0  0
   15.0639   23.6412   32.9096 O   0  0  0  0  0  0  0  0  0  0  0  0
   17.9175   32.1230   33.1105 C   0  0  0  0  0  0  0  0  0  0  0  0
   13.1402   20.0564   30.9502 C   0  0  0  0  0  0  0  0  0  0  0  0
   15.8346   19.2469   33.4564 C   0  0  0  0  0  0  0  0  0  0  0  0
  1  2  1  6  0  0  0
  1  6  1  0  0  0  0
  1 23  1  0  0  0  0
  3  4  1  1  0  0  0
  3  8  1  0  0  0  0
  3 30  1  0  0  0  0
  5  9  1  0  0  0  0
  5 27  1  0  0  0  0
  5 31  1  6  0  0  0
  6  7  1  6  0  0  0
  6 11  1  0  0  0  0
  8 13  1  0  0  0  0
  9 10  1  1  0  0  0
  9 15  1  0  0  0  0
 11 12  1  1  0  0  0
 11 17  1  0  0  0  0
 13 14  1  1  0  0  0
 13 19  1  0  0  0  0
 15 16  1  1  0  0  0
 15 20  1  0  0  0  0
 16 34  1  0  0  0  0
 17 18  1  6  0  0  0
 17 22  1  0  0  0  0
 19  2  1  6  0  0  0
 19 24  1  0  0  0  0
 20 21  1  1  0  0  0
 20 26  1  0  0  0  0
 20 33  1  0  0  0  0
 22 23  1  1  0  0  0
 22 28  1  0  0  0  0
 24 25  1  1  0  0  0
 24 30  1  0  0  0  0
 26 27  1  0  0  0  0
 28 29  1  6  0  0  0
 28 32  1  0  0  0  0
 30 31  1  6  0  0  0
M  END
>  <CHROM.1>
-82.24424494,-97.30908164,-107.39311758,-52.45176261,163.55279161,-87.54391724
15.61698908,25.77258737,34.09657260,-1.33546540,-0.06148637,-2.90434358

>  <Name>
ligand

>  <RI>
0

>  <Rbt.Current_Directory>
/home/itssahil/PROJECTS/Mol_Feturizer/New_Systems/rnas/4p3s

>  <Rbt.Executable>
rbdock ($Id: //depot/dev/client3/rdock/2013.1/src/exe/rbdock.cxx#4 $)

>  <Rbt.Library>
libRbt.so (2013.1, Build901 2013/11/27)

>  <Rbt.Parameter_File>
/export/apps/rDock/src/rDock_2013.1_src/data/scripts/dock_solv.prm

>  <Rbt.Receptor>
prm/pocket_docking_7.prm

>  <SCORE>
-12.5628

>  <SCORE.INTER>
-12.5159

>  <SCORE.INTER.CONST>
1

>  <SCORE.INTER.POLAR>
0

>  <SCORE.INTER.ROT>
6

>  <SCORE.INTER.SOLV>
17.084

>  <SCORE.INTER.VDW>
-21.6386

>  <SCORE.INTER.norm>
-0.368115

>  <SCORE.INTRA>
-0.0468343

>  <SCORE.INTRA.DIHEDRAL>
-2.94816

>  <SCORE.INTRA.DIHEDRAL.0>
15.8194

>  <SCORE.INTRA.POLAR>
0

>  <SCORE.INTRA.POLAR.0>
0

>  <SCORE.INTRA.REPUL>
0

>  <SCORE.INTRA.REPUL.0>
0

>  <SCORE.INTRA.SOLV>
2.77695

>  <SCORE.INTRA.SOLV.lig_0>
-71.9159

>  <SCORE.INTRA.VDW>
0.0387677

>  <SCORE.INTRA.VDW.0>
-3.53918

>  <SCORE.INTRA.norm>
-0.00137748

>  <SCORE.RESTR>
0

>  <SCORE.RESTR.CAVITY>
0

>  <SCORE.RESTR.norm>
0

>  <SCORE.SYSTEM>
0

>  <SCORE.SYSTEM.CONST>
0

>  <SCORE.SYSTEM.DIHEDRAL>
0

>  <SCORE.SYSTEM.SOLV>
0

>  <SCORE.SYSTEM.norm>
0

>  <SCORE.heavy>
34

>  <SCORE.norm>
-0.369493

>  <RMSD>
10.582

$$$$
ligand
 OpenBabel01301917533D
libRbt.so/2013.1/901 2013/11/27
 34 36  0  0  0  0  0  0  0  0999 V2000
   19.5578   37.2596   27.9330 C   0  0  2  0  0  0  0  0  0  0  0  0
   19.9224   35.8770   27.9923 O   0  0  0  0  0  0  0  0  0  0  0  0
   18.2942   34.7407   31.7950 C   0  0  2  0  0  0  0  0  0  0  0  0
   17.5749   34.0062   32.8446 N   0  0  0  0  0  0  0  0  0  0  0  0
   21.5121   32.6479   32.1379 C   0  0  2  0  0  0  0  0  0  0  0  0
   20.6139   38.0046   27.0327 C   0  0  2  0  0  0  0  0  0  0  0  0
   20.6509   37.4268   25.6797 N   0  0  0  0  0  0  0  0  0  0  0  0
   17.2820   35.0180   30.6254 C   0  0  0  0  0  0  0  0  0  0  0  0
   21.4530   31.7113   33.4086 C   0  0  2  0  0  0  0  0  0  0  0  0
   20.2008   31.0509   33.4754 O   0  0  0  0  0  0  0  0  0  0  0  0
   22.0269   37.9289   27.6860 C   0  0  1  0  0  0  0  0  0  0  0  0
   22.9955   38.6086   26.8662 O   0  0  0  0  0  0  0  0  0  0  0  0
   18.0460   35.8194   29.5135 C   0  0  2  0  0  0  0  0  0  0  0  0
   17.1438   36.1138   28.3639 N   0  0  0  0  0  0  0  0  0  0  0  0
   21.6677   32.6055   34.6879 C   0  0  1  0  0  0  0  0  0  0  0  0
   21.5871   31.7923   35.9179 N   0  0  0  0  0  0  0  0  0  0  0  0
   21.9436   38.5472   29.1013 C   0  0  2  0  0  0  0  0  0  0  0  0
   23.2355   38.4987   29.7150 O   0  0  0  0  0  0  0  0  0  0  0  0
   19.2750   35.0136   28.9942 C   0  0  2  0  0  0  0  0  0  0  0  0
   23.0591   33.3074   34.5902 C   0  0  1  0  0  0  0  0  0  0  0  0
   24.0682   32.3033   34.5601 O   0  0  0  0  0  0  0  0  0  0  0  0
   20.8644   37.7439   29.9476 C   0  0  2  0  0  0  0  0  0  0  0  0
   19.5390   37.7973   29.2913 O   0  0  0  0  0  0  0  0  0  0  0  0
   20.2191   34.6996   30.1864 C   0  0  2  0  0  0  0  0  0  0  0  0
   21.3171   33.9365   29.6905 O   0  0  0  0  0  0  0  0  0  0  0  0
   23.1076   34.1517   33.2763 C   0  0  0  0  0  0  0  0  0  0  0  0
   22.8287   33.3132   32.0858 O   0  0  0  0  0  0  0  0  0  0  0  0
   20.7038   38.2964   31.3930 C   0  0  2  0  0  0  0  0  0  0  0  0
   21.5223   39.4612   31.5464 O   0  0  0  0  0  0  0  0  0  0  0  0
   19.5101   33.8598   31.2774 C   0  0  1  0  0  0  0  0  0  0  0  0
   20.4587   33.6399   32.3575 O   0  0  0  0  0  0  0  0  0  0  0  0
   21.1285   37.2902   32.4398 C   0  0  0  0  0  0  0  0  0  0  0  0
   23.3349   34.2135   35.7910 C   0  0  0  0  0  0  0  0  0  0  0  0
   20.9273   32.6212   36.9564 C   0  0  0  0  0  0  0  0  0  0  0  0
  1  2  1  1  0  0  0
  1  6  1  0  0  0  0
  1 23  1  0  0  0  0
  3  4  1  1  0  0  0
  3  8  1  0  0  0  0
  3 30  1  0  0  0  0
  5  9  1  0  0  0  0
  5 27  1  0  0  0  0
  5 31  1  1  0  0  0
  6  7  1  6  0  0  0
  6 11  1  0  0  0  0
  8 13  1  0  0  0  0
  9 10  1  1  0  0  0
  9 15  1  0  0  0  0
 11 12  1  6  0  0  0
 11 17  1  0  0  0  0
 13 14  1  6  0  0  0
 13 19  1  0  0  0  0
 15 16  1  1  0  0  0
 15 20  1  0  0  0  0
 16 34  1  0  0  0  0
 17 18  1  1  0  0  0
 17 22  1  0  0  0  0
 19  2  1  6  0  0  0
 19 24  1  0  0  0  0
 20 21  1  6  0  0  0
 20 26  1  0  0  0  0
 20 33  1  0  0  0  0
 22 23  1  6  0  0  0
 22 28  1  0  0  0  0
 24 25  1  6  0  0  0
 24 30  1  0  0  0  0
 26 27  1  0  0  0  0
 28 29  1  6  0  0  0
 28 32  1  0  0  0  0
 30 31  1  1  0  0  0
M  END
>  <CHROM.1>
167.03117869,14.33596132,-143.67073776,3.98039644,168.90078613,-129.45867238
20.85236332,35.27506559,31.16890140,1.72970263,-0.46302413,-0.83245869

>  <Name>
ligand

>  <RI>
0

>  <Rbt.Current_Directory>
/home/itssahil/PROJECTS/Mol_Feturizer/New_Systems/rnas/4p3s

>  <Rbt.Executable>
rbdock ($Id: //depot/dev/client3/rdock/2013.1/src/exe/rbdock.cxx#4 $)

>  <Rbt.Library>
libRbt.so (2013.1, Build901 2013/11/27)

>  <Rbt.Parameter_File>
/export/apps/rDock/src/rDock_2013.1_src/data/scripts/dock_solv.prm

>  <Rbt.Receptor>
prm/blind_docking_100.prm

>  <SCORE>
12.3879

>  <SCORE.INTER>
0.215097

>  <SCORE.INTER.CONST>
1

>  <SCORE.INTER.POLAR>
0

>  <SCORE.INTER.ROT>
6

>  <SCORE.INTER.SOLV>
10.2918

>  <SCORE.INTER.VDW>
-10.8872

>  <SCORE.INTER.norm>
0.00632638

>  <SCORE.INTRA>
9.36566

>  <SCORE.INTRA.DIHEDRAL>
4.71965

>  <SCORE.INTRA.DIHEDRAL.0>
15.8194

>  <SCORE.INTRA.POLAR>
0

>  <SCORE.INTRA.POLAR.0>
0

>  <SCORE.INTRA.REPUL>
0

>  <SCORE.INTRA.REPUL.0>
0

>  <SCORE.INTRA.SOLV>
0.501381

>  <SCORE.INTRA.SOLV.lig_0>
-71.9159

>  <SCORE.INTRA.VDW>
6.75514

>  <SCORE.INTRA.VDW.0>
-3.53918

>  <SCORE.INTRA.norm>
0.275461

>  <SCORE.RESTR>
2.80718

>  <SCORE.RESTR.CAVITY>
2.80718

>  <SCORE.RESTR.norm>
0.0825641

>  <SCORE.SYSTEM>
0

>  <SCORE.SYSTEM.CONST>
0

>  <SCORE.SYSTEM.DIHEDRAL>
0

>  <SCORE.SYSTEM.SOLV>
0

>  <SCORE.SYSTEM.norm>
0

>  <SCORE.heavy>
34

>  <SCORE.norm>
0.364351

>  <RMSD>
10.589

$$$$
ligand
 OpenBabel01301917533D
libRbt.so/2013.1/901 2013/11/27
 34 36  0  0  0  0  0  0  0  0999 V2000
   17.3971   28.2326   35.6164 C   0  0  2  0  0  0  0  0  0  0  0  0
   16.8218   27.4492   34.5660 O   0  0  0  0  0  0  0  0  0  0  0  0
   17.5758   23.5345   32.9819 C   0  0  2  0  0  0  0  0  0  0  0  0
   17.8839   22.1013   32.8846 N   0  0  0  0  0  0  0  0  0  0  0  0
   15.1577   21.6698   32.7318 C   0  0  2  0  0  0  0  0  0  0  0  0
   16.3366   28.3494   36.7750 C   0  0  2  0  0  0  0  0  0  0  0  0
   15.9592   27.0185   37.2774 N   0  0  0  0  0  0  0  0  0  0  0  0
   18.7237   24.2156   33.8113 C   0  0  0  0  0  0  0  0  0  0  0  0
   13.8441   21.3342   31.9212 C   0  0  2  0  0  0  0  0  0  0  0  0
   13.8730   21.9667   30.6533 O   0  0  0  0  0  0  0  0  0  0  0  0
   15.0726   29.1104   36.2729 C   0  0  1  0  0  0  0  0  0  0  0  0
   14.1003   29.2194   37.3290 O   0  0  0  0  0  0  0  0  0  0  0  0
   18.4037   25.7493   33.8981 C   0  0  2  0  0  0  0  0  0  0  0  0
   19.4537   26.4619   34.6805 N   0  0  0  0  0  0  0  0  0  0  0  0
   12.6085   21.8419   32.7566 C   0  0  1  0  0  0  0  0  0  0  0  0
   11.3454   21.5899   32.0341 N   0  0  0  0  0  0  0  0  0  0  0  0
   15.5129   30.5006   35.7577 C   0  0  2  0  0  0  0  0  0  0  0  0
   14.3636   31.2217   35.3025 O   0  0  0  0  0  0  0  0  0  0  0  0
   17.0213   25.9903   34.5765 C   0  0  2  0  0  0  0  0  0  0  0  0
   12.5976   21.1174   34.1398 C   0  0  1  0  0  0  0  0  0  0  0  0
   12.4529   19.7190   33.9140 O   0  0  0  0  0  0  0  0  0  0  0  0
   16.5762   30.3013   34.5933 C   0  0  2  0  0  0  0  0  0  0  0  0
   17.7511   29.5451   35.0812 O   0  0  0  0  0  0  0  0  0  0  0  0
   15.9214   25.2485   33.7694 C   0  0  2  0  0  0  0  0  0  0  0  0
   14.6739   25.4587   34.4275 O   0  0  0  0  0  0  0  0  0  0  0  0
   13.9493   21.4026   34.8699 C   0  0  0  0  0  0  0  0  0  0  0  0
   15.1074   20.9902   34.0411 O   0  0  0  0  0  0  0  0  0  0  0  0
   17.0858   31.6502   34.0095 C   0  0  2  0  0  0  0  0  0  0  0  0
   15.9691   32.4114   33.5363 O   0  0  0  0  0  0  0  0  0  0  0  0
   16.1785   23.7223   33.7130 C   0  0  1  0  0  0  0  0  0  0  0  0
   15.1185   23.1208   32.9196 O   0  0  0  0  0  0  0  0  0  0  0  0
   18.0345   31.4483   32.8485 C   0  0  0  0  0  0  0  0  0  0  0  0
   11.4340   21.5728   35.0216 C   0  0  0  0  0  0  0  0  0  0  0  0
   10.8782   22.8884   31.4897 C   0  0  0  0  0  0  0  0  0  0  0  0
  1  2  1  6  0  0  0
  1  6  1  0  0  0  0
  1 23  1  0  0  0  0
  3  4  1  1  0  0  0
  3  8  1  0  0  0  0
  3 30  1  0  0  0  0
  5  9  1  0  0  0  0
  5 27  1  0  0  0  0
  5 31  1  1  0  0  0
  6  7  1  6  0  0  0
  6 11  1  0  0  0  0
  8 13  1  0  0  0  0
  9 10  1  6  0  0  0
  9 15  1  0  0  0  0
 11 12  1  1  0  0  0
 11 17  1  0  0  0  0
 13 14  1  1  0  0  0
 13 19  1  0  0  0  0
 15 16  1  6  0  0  0
 15 20  1  0  0  0  0
 16 34  1  0  0  0  0
 17 18  1  6  0  0  0
 17 22  1  0  0  0  0
 19  2  1  6  0  0  0
 19 24  1  0  0  0  0
 20 21  1  6  0  0  0
 20 26  1  0  0  0  0
 20 33  1  0  0  0  0
 22 23  1  1  0  0  0
 22 28  1  0  0  0  0
 24 25  1  1  0  0  0
 24 30  1  0  0  0  0
 26 27  1  0  0  0  0
 28 29  1  6  0  0  0
 28 32  1  0  0  0  0
 30 31  1  6  0  0  0
M  END
>  <CHROM.1>
-90.68977995,-84.35385441,-104.79800079,-57.09694200,64.66666127,176.51901673
15.41095739,25.55429443,34.11596080,-1.23155758,-0.09859520,-2.88571188

>  <Name>
ligand

>  <RI>
0

>  <Rbt.Current_Directory>
/home/itssahil/PROJECTS/Mol_Feturizer/New_Systems/rnas/4p3s

>  <Rbt.Executable>
rbdock ($Id: //depot/dev/client3/rdock/2013.1/src/exe/rbdock.cxx#4 $)

>  <Rbt.Library>
libRbt.so (2013.1, Build901 2013/11/27)

>  <Rbt.Parameter_File>
/export/apps/rDock/src/rDock_2013.1_src/data/scripts/dock_solv.prm

>  <Rbt.Receptor>
prm/pocket_docking_7.prm

>  <SCORE>
-15.0495

>  <SCORE.INTER>
-12.9442

>  <SCORE.INTER.CONST>
1

>  <SCORE.INTER.POLAR>
0

>  <SCORE.INTER.ROT>
6

>  <SCORE.INTER.SOLV>
14.6331

>  <SCORE.INTER.VDW>
-21.1072

>  <SCORE.INTER.norm>
-0.380712

>  <SCORE.INTRA>
-2.10527

>  <SCORE.INTRA.DIHEDRAL>
-8.20788

>  <SCORE.INTRA.DIHEDRAL.0>
15.8194

>  <SCORE.INTRA.POLAR>
0

>  <SCORE.INTRA.POLAR.0>
0

>  <SCORE.INTRA.REPUL>
0

>  <SCORE.INTRA.REPUL.0>
0

>  <SCORE.INTRA.SOLV>
2.38307

>  <SCORE.INTRA.SOLV.lig_0>
-71.9159

>  <SCORE.INTRA.VDW>
0.807135

>  <SCORE.INTRA.VDW.0>
-3.53918

>  <SCORE.INTRA.norm>
-0.0619198

>  <SCORE.RESTR>
0

>  <SCORE.RESTR.CAVITY>
0

>  <SCORE.RESTR.norm>
0

>  <SCORE.SYSTEM>
0

>  <SCORE.SYSTEM.CONST>
0

>  <SCORE.SYSTEM.DIHEDRAL>
0

>  <SCORE.SYSTEM.SOLV>
0

>  <SCORE.SYSTEM.norm>
0

>  <SCORE.heavy>
34

>  <SCORE.norm>
-0.442632

>  <RMSD>
10.765

$$$$
ligand
 OpenBabel01301917533D
libRbt.so/2013.1/901 2013/11/27
 34 36  0  0  0  0  0  0  0  0999 V2000
   20.2842   38.8210   29.4605 C   0  0  2  0  0  0  0  0  0  0  0  0
   21.6020   38.3285   29.7232 O   0  0  0  0  0  0  0  0  0  0  0  0
   21.1288   34.3565   28.1733 C   0  0  2  0  0  0  0  0  0  0  0  0
   21.4004   33.0703   27.5172 N   0  0  0  0  0  0  0  0  0  0  0  0
   22.7673   32.6438   30.9871 C   0  0  2  0  0  0  0  0  0  0  0  0
   20.0240   40.0497   30.4110 C   0  0  2  0  0  0  0  0  0  0  0  0
   21.0205   41.1088   30.1844 N   0  0  0  0  0  0  0  0  0  0  0  0
   21.4761   35.4981   27.1509 C   0  0  0  0  0  0  0  0  0  0  0  0
   22.0506   31.4107   31.6662 C   0  0  2  0  0  0  0  0  0  0  0  0
   21.3632   30.6436   30.6927 O   0  0  0  0  0  0  0  0  0  0  0  0
   20.0564   39.5939   31.9010 C   0  0  1  0  0  0  0  0  0  0  0  0
   19.8192   40.7141   32.7735 O   0  0  0  0  0  0  0  0  0  0  0  0
   21.1673   36.8708   27.8458 C   0  0  2  0  0  0  0  0  0  0  0  0
   21.4808   38.0054   26.9310 N   0  0  0  0  0  0  0  0  0  0  0  0
   21.0391   31.9618   32.7411 C   0  0  1  0  0  0  0  0  0  0  0  0
   20.3066   30.8558   33.3901 N   0  0  0  0  0  0  0  0  0  0  0  0
   18.9955   38.4854   32.0951 C   0  0  2  0  0  0  0  0  0  0  0  0
   19.0003   38.0606   33.4617 O   0  0  0  0  0  0  0  0  0  0  0  0
   22.0033   37.0322   29.1513 C   0  0  2  0  0  0  0  0  0  0  0  0
   21.8280   32.7893   33.8046 C   0  0  1  0  0  0  0  0  0  0  0  0
   22.7550   31.9234   34.4513 O   0  0  0  0  0  0  0  0  0  0  0  0
   19.3252   37.2835   31.1088 C   0  0  2  0  0  0  0  0  0  0  0  0
   19.3257   37.7453   29.7028 O   0  0  0  0  0  0  0  0  0  0  0  0
   21.6853   35.8521   30.1093 C   0  0  2  0  0  0  0  0  0  0  0  0
   22.4848   36.0066   31.2801 O   0  0  0  0  0  0  0  0  0  0  0  0
   22.5924   33.9438   33.0805 C   0  0  0  0  0  0  0  0  0  0  0  0
   23.4844   33.4177   32.0195 O   0  0  0  0  0  0  0  0  0  0  0  0
   18.3057   36.1143   31.2266 C   0  0  2  0  0  0  0  0  0  0  0  0
   18.6239   35.1112   30.2557 O   0  0  0  0  0  0  0  0  0  0  0  0
   22.0327   34.4836   29.4730 C   0  0  1  0  0  0  0  0  0  0  0  0
   21.6781   33.4454   30.4275 O   0  0  0  0  0  0  0  0  0  0  0  0
   16.8845   36.5681   30.9756 C   0  0  0  0  0  0  0  0  0  0  0  0
   20.9095   33.3776   34.8767 C   0  0  0  0  0  0  0  0  0  0  0  0
   19.0611   30.6329   32.6156 C   0  0  0  0  0  0  0  0  0  0  0  0
  1  2  1  1  0  0  0
  1  6  1  0  0  0  0
  1 23  1  0  0  0  0
  3  4  1  6  0  0  0
  3  8  1  0  0  0  0
  3 30  1  0  0  0  0
  5  9  1  0  0  0  0
  5 27  1  0  0  0  0
  5 31  1  1  0  0  0
  6  7  1  1  0  0  0
  6 11  1  0  0  0  0
  8 13  1  0  0  0  0
  9 10  1  6  0  0  0
  9 15  1  0  0  0  0
 11 12  1  1  0  0  0
 11 17  1  0  0  0  0
 13 14  1  6  0  0  0
 13 19  1  0  0  0  0
 15 16  1  1  0  0  0
 15 20  1  0  0  0  0
 16 34  1  0  0  0  0
 17 18  1  1  0  0  0
 17 22  1  0  0  0  0
 19  2  1  1  0  0  0
 19 24  1  0  0  0  0
 20 21  1  1  0  0  0
 20 26  1  0  0  0  0
 20 33  1  0  0  0  0
 22 23  1  6  0  0  0
 22 28  1  0  0  0  0
 24 25  1  1  0  0  0
 24 30  1  0  0  0  0
 26 27  1  0  0  0  0
 28 29  1  6  0  0  0
 28 32  1  0  0  0  0
 30 31  1  1  0  0  0
M  END
>  <CHROM.1>
168.68813242,28.30452943,-91.50960498,176.61511316,129.92238123,-166.01118562
20.81564375,35.46088951,30.96768829,-2.10721374,-1.19467228,2.35168860

>  <Name>
ligand

>  <RI>
0

>  <Rbt.Current_Directory>
/home/itssahil/PROJECTS/Mol_Feturizer/New_Systems/rnas/4p3s

>  <Rbt.Executable>
rbdock ($Id: //depot/dev/client3/rdock/2013.1/src/exe/rbdock.cxx#4 $)

>  <Rbt.Library>
libRbt.so (2013.1, Build901 2013/11/27)

>  <Rbt.Parameter_File>
/export/apps/rDock/src/rDock_2013.1_src/data/scripts/dock_solv.prm

>  <Rbt.Receptor>
prm/blind_docking_100.prm

>  <SCORE>
4.86557

>  <SCORE.INTER>
-0.963498

>  <SCORE.INTER.CONST>
1

>  <SCORE.INTER.POLAR>
0

>  <SCORE.INTER.ROT>
6

>  <SCORE.INTER.SOLV>
11.2392

>  <SCORE.INTER.VDW>
-11.9887

>  <SCORE.INTER.norm>
-0.0283382

>  <SCORE.INTRA>
1.91834

>  <SCORE.INTRA.DIHEDRAL>
-2.97822

>  <SCORE.INTRA.DIHEDRAL.0>
15.8194

>  <SCORE.INTRA.POLAR>
0

>  <SCORE.INTRA.POLAR.0>
0

>  <SCORE.INTRA.REPUL>
0

>  <SCORE.INTRA.REPUL.0>
0

>  <SCORE.INTRA.SOLV>
0.848648

>  <SCORE.INTRA.SOLV.lig_0>
-71.9159

>  <SCORE.INTRA.VDW>
2.98312

>  <SCORE.INTRA.VDW.0>
-3.53918

>  <SCORE.INTRA.norm>
0.0564217

>  <SCORE.RESTR>
3.91073

>  <SCORE.RESTR.CAVITY>
3.91073

>  <SCORE.RESTR.norm>
0.115022

>  <SCORE.SYSTEM>
0

>  <SCORE.SYSTEM.CONST>
0

>  <SCORE.SYSTEM.DIHEDRAL>
0

>  <SCORE.SYSTEM.SOLV>
0

>  <SCORE.SYSTEM.norm>
0

>  <SCORE.heavy>
34

>  <SCORE.norm>
0.143105

>  <RMSD>
10.774

$$$$
ligand
 OpenBabel01301917533D
libRbt.so/2013.1/901 2013/11/27
 34 36  0  0  0  0  0  0  0  0999 V2000
   17.2120   28.3219   36.0677 C   0  0  2  0  0  0  0  0  0  0  0  0
   16.4059   27.6454   35.0978 O   0  0  0  0  0  0  0  0  0  0  0  0
   17.1506   24.3659   32.4345 C   0  0  2  0  0  0  0  0  0  0  0  0
   17.5953   23.0710   31.9016 N   0  0  0  0  0  0  0  0  0  0  0  0
   14.9632   22.0994   32.5195 C   0  0  2  0  0  0  0  0  0  0  0  0
   16.3048   28.6502   37.3127 C   0  0  2  0  0  0  0  0  0  0  0  0
   15.7374   27.4199   37.8876 N   0  0  0  0  0  0  0  0  0  0  0  0
   18.3956   25.0676   33.0880 C   0  0  0  0  0  0  0  0  0  0  0  0
   13.5643   21.7502   31.8741 C   0  0  2  0  0  0  0  0  0  0  0  0
   13.3514   22.5289   30.7093 O   0  0  0  0  0  0  0  0  0  0  0  0
   15.1613   29.6266   36.9029 C   0  0  1  0  0  0  0  0  0  0  0  0
   14.3294   29.9292   38.0381 O   0  0  0  0  0  0  0  0  0  0  0  0
   17.9238   26.4588   33.6396 C   0  0  2  0  0  0  0  0  0  0  0  0
   19.0583   27.1816   34.2823 N   0  0  0  0  0  0  0  0  0  0  0  0
   12.4437   22.0463   32.9413 C   0  0  1  0  0  0  0  0  0  0  0  0
   11.1028   21.7737   32.3858 N   0  0  0  0  0  0  0  0  0  0  0  0
   15.7999   30.9033   36.3076 C   0  0  2  0  0  0  0  0  0  0  0  0
   14.7657   31.8197   35.9355 O   0  0  0  0  0  0  0  0  0  0  0  0
   16.7827   26.2826   34.6866 C   0  0  2  0  0  0  0  0  0  0  0  0
   12.6986   21.1645   34.2045 C   0  0  1  0  0  0  0  0  0  0  0  0
   12.6147   19.7956   33.8219 O   0  0  0  0  0  0  0  0  0  0  0  0
   16.6941   30.4933   35.0592 C   0  0  2  0  0  0  0  0  0  0  0  0
   17.7500   29.5381   35.4626 O   0  0  0  0  0  0  0  0  0  0  0  0
   15.5974   25.5273   34.0262 C   0  0  2  0  0  0  0  0  0  0  0  0
   14.5821   25.3518   35.0121 O   0  0  0  0  0  0  0  0  0  0  0  0
   14.1258   21.4768   34.7587 C   0  0  0  0  0  0  0  0  0  0  0  0
   15.1647   21.2673   33.7219 O   0  0  0  0  0  0  0  0  0  0  0  0
   17.3866   31.7156   34.3907 C   0  0  2  0  0  0  0  0  0  0  0  0
   18.0293   32.5033   35.3990 O   0  0  0  0  0  0  0  0  0  0  0  0
   16.0175   24.1249   33.5210 C   0  0  1  0  0  0  0  0  0  0  0  0
   14.8564   23.5090   32.8988 O   0  0  0  0  0  0  0  0  0  0  0  0
   16.4005   32.6051   33.6661 C   0  0  0  0  0  0  0  0  0  0  0  0
   11.6597   21.4098   35.2997 C   0  0  0  0  0  0  0  0  0  0  0  0
   10.5275   23.0718   31.9560 C   0  0  0  0  0  0  0  0  0  0  0  0
  1  2  1  6  0  0  0
  1  6  1  0  0  0  0
  1 23  1  0  0  0  0
  3  4  1  1  0  0  0
  3  8  1  0  0  0  0
  3 30  1  0  0  0  0
  5  9  1  0  0  0  0
  5 27  1  0  0  0  0
  5 31  1  1  0  0  0
  6  7  1  6  0  0  0
  6 11  1  0  0  0  0
  8 13  1  0  0  0  0
  9 10  1  6  0  0  0
  9 15  1  0  0  0  0
 11 12  1  1  0  0  0
 11 17  1  0  0  0  0
 13 14  1  1  0  0  0
 13 19  1  0  0  0  0
 15 16  1  6  0  0  0
 15 20  1  0  0  0  0
 16 34  1  0  0  0  0
 17 18  1  6  0  0  0
 17 22  1  0  0  0  0
 19  2  1  6  0  0  0
 19 24  1  0  0  0  0
 20 21  1  6  0  0  0
 20 26  1  0  0  0  0
 20 33  1  0  0  0  0
 22 23  1  1  0  0  0
 22 28  1  0  0  0  0
 24 25  1  1  0  0  0
 24 30  1  0  0  0  0
 26 27  1  0  0  0  0
 28 29  1  1  0  0  0
 28 32  1  0  0  0  0
 30 31  1  6  0  0  0
M  END
>  <CHROM.1>
-119.61118479,-80.37191608,-98.85906239,49.19429046,73.25804385,-179.57069232
15.32911779,25.91522319,34.33518177,-1.18883046,-0.40349187,-2.69106073

>  <Name>
ligand

>  <RI>
0

>  <Rbt.Current_Directory>
/home/itssahil/PROJECTS/Mol_Feturizer/New_Systems/rnas/4p3s

>  <Rbt.Executable>
rbdock ($Id: //depot/dev/client3/rdock/2013.1/src/exe/rbdock.cxx#4 $)

>  <Rbt.Library>
libRbt.so (2013.1, Build901 2013/11/27)

>  <Rbt.Parameter_File>
/export/apps/rDock/src/rDock_2013.1_src/data/scripts/dock_solv.prm

>  <Rbt.Receptor>
prm/pocket_docking_8.prm

>  <SCORE>
-12.9508

>  <SCORE.INTER>
-12.5122

>  <SCORE.INTER.CONST>
1

>  <SCORE.INTER.POLAR>
0

>  <SCORE.INTER.ROT>
6

>  <SCORE.INTER.SOLV>
13.6095

>  <SCORE.INTER.VDW>
-20.478

>  <SCORE.INTER.norm>
-0.368006

>  <SCORE.INTRA>
-0.43861

>  <SCORE.INTRA.DIHEDRAL>
-4.56386

>  <SCORE.INTRA.DIHEDRAL.0>
15.8194

>  <SCORE.INTRA.POLAR>
0

>  <SCORE.INTRA.POLAR.0>
0

>  <SCORE.INTRA.REPUL>
0

>  <SCORE.INTRA.REPUL.0>
0

>  <SCORE.INTRA.SOLV>
1.84296

>  <SCORE.INTRA.SOLV.lig_0>
-71.9159

>  <SCORE.INTRA.VDW>
0.921841

>  <SCORE.INTRA.VDW.0>
-3.53918

>  <SCORE.INTRA.norm>
-0.0129003

>  <SCORE.RESTR>
0

>  <SCORE.RESTR.CAVITY>
0

>  <SCORE.RESTR.norm>
0

>  <SCORE.SYSTEM>
0

>  <SCORE.SYSTEM.CONST>
0

>  <SCORE.SYSTEM.DIHEDRAL>
0

>  <SCORE.SYSTEM.SOLV>
0

>  <SCORE.SYSTEM.norm>
0

>  <SCORE.heavy>
34

>  <SCORE.norm>
-0.380906

>  <RMSD>
10.817

$$$$
ligand
 OpenBabel01301917533D
libRbt.so/2013.1/901 2013/11/27
 34 36  0  0  0  0  0  0  0  0999 V2000
   17.3906   27.9513   35.7908 C   0  0  2  0  0  0  0  0  0  0  0  0
   16.8664   27.2914   34.6341 O   0  0  0  0  0  0  0  0  0  0  0  0
   17.2832   23.4664   32.7374 C   0  0  2  0  0  0  0  0  0  0  0  0
   17.5106   22.0313   32.5196 N   0  0  0  0  0  0  0  0  0  0  0  0
   14.7609   21.7281   32.5966 C   0  0  2  0  0  0  0  0  0  0  0  0
   16.2533   28.0055   36.8791 C   0  0  2  0  0  0  0  0  0  0  0  0
   15.7947   26.6509   37.2268 N   0  0  0  0  0  0  0  0  0  0  0  0
   18.5325   24.0387   33.4996 C   0  0  0  0  0  0  0  0  0  0  0  0
   13.3617   21.5050   31.8982 C   0  0  2  0  0  0  0  0  0  0  0  0
   13.3033   22.2173   30.6743 O   0  0  0  0  0  0  0  0  0  0  0  0
   15.0562   28.8605   36.3645 C   0  0  1  0  0  0  0  0  0  0  0  0
   14.0141   28.9125   37.3562 O   0  0  0  0  0  0  0  0  0  0  0  0
   18.2972   25.5751   33.7146 C   0  0  2  0  0  0  0  0  0  0  0  0
   19.4465   26.1863   34.4413 N   0  0  0  0  0  0  0  0  0  0  0  0
   12.2372   22.0112   32.8788 C   0  0  1  0  0  0  0  0  0  0  0  0
   10.9008   21.8635   32.2681 N   0  0  0  0  0  0  0  0  0  0  0  0
   15.5805   30.2726   36.0138 C   0  0  2  0  0  0  0  0  0  0  0  0
   14.4930   31.0789   35.5500 O   0  0  0  0  0  0  0  0  0  0  0  0
   16.9943   25.8281   34.5318 C   0  0  2  0  0  0  0  0  0  0  0  0
   12.3197   21.1989   34.2098 C   0  0  1  0  0  0  0  0  0  0  0  0
   12.0841   19.8261   33.9143 O   0  0  0  0  0  0  0  0  0  0  0  0
   16.7182   30.1368   34.9123 C   0  0  2  0  0  0  0  0  0  0  0  0
   17.8277   29.2916   35.4071 O   0  0  0  0  0  0  0  0  0  0  0  0
   15.7918   25.1916   33.7833 C   0  0  2  0  0  0  0  0  0  0  0  0
   14.6197   25.4095   34.5659 O   0  0  0  0  0  0  0  0  0  0  0  0
   13.7467   21.3754   34.8214 C   0  0  0  0  0  0  0  0  0  0  0  0
   14.7995   20.9671   33.8607 O   0  0  0  0  0  0  0  0  0  0  0  0
   17.3152   31.5114   34.4945 C   0  0  2  0  0  0  0  0  0  0  0  0
   17.6671   32.2496   35.6698 O   0  0  0  0  0  0  0  0  0  0  0  0
   15.9675   23.6633   33.6048 C   0  0  1  0  0  0  0  0  0  0  0  0
   14.8128   23.1640   32.8754 O   0  0  0  0  0  0  0  0  0  0  0  0
   16.3322   32.3438   33.7012 C   0  0  0  0  0  0  0  0  0  0  0  0
   11.2685   21.6469   35.2263 C   0  0  0  0  0  0  0  0  0  0  0  0
   10.4928   23.1975   31.7634 C   0  0  0  0  0  0  0  0  0  0  0  0
  1  2  1  6  0  0  0
  1  6  1  0  0  0  0
  1 23  1  0  0  0  0
  3  4  1  1  0  0  0
  3  8  1  0  0  0  0
  3 30  1  0  0  0  0
  5  9  1  0  0  0  0
  5 27  1  0  0  0  0
  5 31  1  1  0  0  0
  6  7  1  6  0  0  0
  6 11  1  0  0  0  0
  8 13  1  0  0  0  0
  9 10  1  6  0  0  0
  9 15  1  0  0  0  0
 11 12  1  1  0  0  0
 11 17  1  0  0  0  0
 13 14  1  1  0  0  0
 13 19  1  0  0  0  0
 15 16  1  6  0  0  0
 15 20  1  0  0  0  0
 16 34  1  0  0  0  0
 17 18  1  6  0  0  0
 17 22  1  0  0  0  0
 19  2  1  6  0  0  0
 19 24  1  0  0  0  0
 20 21  1  6  0  0  0
 20 26  1  0  0  0  0
 20 33  1  0  0  0  0
 22 23  1  1  0  0  0
 22 28  1  0  0  0  0
 24 25  1  1  0  0  0
 24 30  1  0  0  0  0
 26 27  1  0  0  0  0
 28 29  1  1  0  0  0
 28 32  1  0  0  0  0
 30 31  1  6  0  0  0
M  END
>  <CHROM.1>
-89.68082306,-94.21113089,-100.77612488,49.66386669,64.93514013,176.14037409
15.25700245,25.51329873,34.24931649,-1.18697410,-0.12058689,-2.81749864

>  <Name>
ligand

>  <RI>
0

>  <Rbt.Current_Directory>
/home/itssahil/PROJECTS/Mol_Feturizer/New_Systems/rnas/4p3s

>  <Rbt.Executable>
rbdock ($Id: //depot/dev/client3/rdock/2013.1/src/exe/rbdock.cxx#4 $)

>  <Rbt.Library>
libRbt.so (2013.1, Build901 2013/11/27)

>  <Rbt.Parameter_File>
/export/apps/rDock/src/rDock_2013.1_src/data/scripts/dock_solv.prm

>  <Rbt.Receptor>
prm/pocket_docking_8.prm

>  <SCORE>
-13.8171

>  <SCORE.INTER>
-12.8591

>  <SCORE.INTER.CONST>
1

>  <SCORE.INTER.POLAR>
0

>  <SCORE.INTER.ROT>
6

>  <SCORE.INTER.SOLV>
14.7877

>  <SCORE.INTER.VDW>
-21.102

>  <SCORE.INTER.norm>
-0.378208

>  <SCORE.INTRA>
-0.957986

>  <SCORE.INTRA.DIHEDRAL>
-6.30648

>  <SCORE.INTRA.DIHEDRAL.0>
15.8194

>  <SCORE.INTRA.POLAR>
0

>  <SCORE.INTRA.POLAR.0>
0

>  <SCORE.INTRA.REPUL>
0

>  <SCORE.INTRA.REPUL.0>
0

>  <SCORE.INTRA.SOLV>
2.59204

>  <SCORE.INTRA.SOLV.lig_0>
-71.9159

>  <SCORE.INTRA.VDW>
0.899233

>  <SCORE.INTRA.VDW.0>
-3.53918

>  <SCORE.INTRA.norm>
-0.0281761

>  <SCORE.RESTR>
0

>  <SCORE.RESTR.CAVITY>
0

>  <SCORE.RESTR.norm>
0

>  <SCORE.SYSTEM>
0

>  <SCORE.SYSTEM.CONST>
0

>  <SCORE.SYSTEM.DIHEDRAL>
0

>  <SCORE.SYSTEM.SOLV>
0

>  <SCORE.SYSTEM.norm>
0

>  <SCORE.heavy>
34

>  <SCORE.norm>
-0.406384

>  <RMSD>
10.885

$$$$
ligand
 OpenBabel01301917533D
libRbt.so/2013.1/901 2013/11/27
 34 36  0  0  0  0  0  0  0  0999 V2000
   22.7126   34.4303   32.5524 C   0  0  2  0  0  0  0  0  0  0  0  0
   21.4984   35.1198   32.8666 O   0  0  0  0  0  0  0  0  0  0  0  0
   19.8315   38.8146   31.4625 C   0  0  2  0  0  0  0  0  0  0  0  0
   19.5989   40.2481   31.2396 N   0  0  0  0  0  0  0  0  0  0  0  0
   22.4656   38.8402   28.7050 C   0  0  2  0  0  0  0  0  0  0  0  0
   22.3343   33.0158   31.9723 C   0  0  2  0  0  0  0  0  0  0  0  0
   21.4957   33.1486   30.7702 N   0  0  0  0  0  0  0  0  0  0  0  0
   19.8449   38.5676   33.0143 C   0  0  0  0  0  0  0  0  0  0  0  0
   22.0639   39.3753   27.2740 C   0  0  2  0  0  0  0  0  0  0  0  0
   21.3620   40.6014   27.3862 O   0  0  0  0  0  0  0  0  0  0  0  0
   21.5922   32.1719   33.0522 C   0  0  1  0  0  0  0  0  0  0  0  0
   21.2444   30.8780   32.5260 O   0  0  0  0  0  0  0  0  0  0  0  0
   20.0740   37.0334   33.2509 C   0  0  2  0  0  0  0  0  0  0  0  0
   20.1044   36.7251   34.7091 N   0  0  0  0  0  0  0  0  0  0  0  0
   21.1581   38.2889   26.5801 C   0  0  1  0  0  0  0  0  0  0  0  0
   20.7166   38.7455   25.2469 N   0  0  0  0  0  0  0  0  0  0  0  0
   22.5072   32.0554   34.2937 C   0  0  2  0  0  0  0  0  0  0  0  0
   21.8485   31.2727   35.2945 O   0  0  0  0  0  0  0  0  0  0  0  0
   21.4167   36.5676   32.6108 C   0  0  2  0  0  0  0  0  0  0  0  0
   21.9637   36.9567   26.4595 C   0  0  1  0  0  0  0  0  0  0  0  0
   23.1033   37.1929   25.6392 O   0  0  0  0  0  0  0  0  0  0  0  0
   22.8416   33.5168   34.8216 C   0  0  2  0  0  0  0  0  0  0  0  0
   23.5123   34.3126   33.7695 O   0  0  0  0  0  0  0  0  0  0  0  0
   21.3951   36.8879   31.0915 C   0  0  2  0  0  0  0  0  0  0  0  0
   22.6446   36.4815   30.5371 O   0  0  0  0  0  0  0  0  0  0  0  0
   22.4171   36.5099   27.8864 C   0  0  0  0  0  0  0  0  0  0  0  0
   23.2046   37.5708   28.5590 O   0  0  0  0  0  0  0  0  0  0  0  0
   23.7657   33.5052   36.0731 C   0  0  2  0  0  0  0  0  0  0  0  0
   23.1907   32.6608   37.0763 O   0  0  0  0  0  0  0  0  0  0  0  0
   21.2267   38.4041   30.8245 C   0  0  1  0  0  0  0  0  0  0  0  0
   21.1913   38.6019   29.3843 O   0  0  0  0  0  0  0  0  0  0  0  0
   23.9362   34.8847   36.6702 C   0  0  0  0  0  0  0  0  0  0  0  0
   21.1424   35.8414   25.8111 C   0  0  0  0  0  0  0  0  0  0  0  0
   19.2872   38.3760   25.1014 C   0  0  0  0  0  0  0  0  0  0  0  0
  1  2  1  1  0  0  0
  1  6  1  0  0  0  0
  1 23  1  0  0  0  0
  3  4  1  1  0  0  0
  3  8  1  0  0  0  0
  3 30  1  0  0  0  0
  5  9  1  0  0  0  0
  5 27  1  0  0  0  0
  5 31  1  1  0  0  0
  6  7  1  6  0  0  0
  6 11  1  0  0  0  0
  8 13  1  0  0  0  0
  9 10  1  1  0  0  0
  9 15  1  0  0  0  0
 11 12  1  6  0  0  0
 11 17  1  0  0  0  0
 13 14  1  1  0  0  0
 13 19  1  0  0  0  0
 15 16  1  6  0  0  0
 15 20  1  0  0  0  0
 16 34  1  0  0  0  0
 17 18  1  1  0  0  0
 17 22  1  0  0  0  0
 19  2  1  6  0  0  0
 19 24  1  0  0  0  0
 20 21  1  6  0  0  0
 20 26  1  0  0  0  0
 20 33  1  0  0  0  0
 22 23  1  6  0  0  0
 22 28  1  0  0  0  0
 24 25  1  1  0  0  0
 24 30  1  0  0  0  0
 26 27  1  0  0  0  0
 28 29  1  1  0  0  0
 28 32  1  0  0  0  0
 30 31  1  6  0  0  0
M  END
>  <CHROM.1>
-142.00119444,-171.73647689,-137.96713237,-53.27957428,154.34595326,-165.83896980
21.74382191,36.08327373,31.01295274,-1.08408107,1.30446991,-1.45153748

>  <Name>
ligand

>  <RI>
0

>  <Rbt.Current_Directory>
/home/itssahil/PROJECTS/Mol_Feturizer/New_Systems/rnas/4p3s

>  <Rbt.Executable>
rbdock ($Id: //depot/dev/client3/rdock/2013.1/src/exe/rbdock.cxx#4 $)

>  <Rbt.Library>
libRbt.so (2013.1, Build901 2013/11/27)

>  <Rbt.Parameter_File>
/export/apps/rDock/src/rDock_2013.1_src/data/scripts/dock_solv.prm

>  <Rbt.Receptor>
prm/blind_docking_100.prm

>  <SCORE>
-1.10713

>  <SCORE.INTER>
-6.37836

>  <SCORE.INTER.CONST>
1

>  <SCORE.INTER.POLAR>
0

>  <SCORE.INTER.ROT>
6

>  <SCORE.INTER.SOLV>
18.5675

>  <SCORE.INTER.VDW>
-18.0414

>  <SCORE.INTER.norm>
-0.187599

>  <SCORE.INTRA>
0.797133

>  <SCORE.INTRA.DIHEDRAL>
-5.50886

>  <SCORE.INTRA.DIHEDRAL.0>
15.8194

>  <SCORE.INTRA.POLAR>
0

>  <SCORE.INTRA.POLAR.0>
0

>  <SCORE.INTRA.REPUL>
0

>  <SCORE.INTRA.REPUL.0>
0

>  <SCORE.INTRA.SOLV>
-0.441727

>  <SCORE.INTRA.SOLV.lig_0>
-71.9159

>  <SCORE.INTRA.VDW>
3.77243

>  <SCORE.INTRA.VDW.0>
-3.53918

>  <SCORE.INTRA.norm>
0.0234451

>  <SCORE.RESTR>
4.47409

>  <SCORE.RESTR.CAVITY>
4.47409

>  <SCORE.RESTR.norm>
0.131591

>  <SCORE.SYSTEM>
0

>  <SCORE.SYSTEM.CONST>
0

>  <SCORE.SYSTEM.DIHEDRAL>
0

>  <SCORE.SYSTEM.SOLV>
0

>  <SCORE.SYSTEM.norm>
0

>  <SCORE.heavy>
34

>  <SCORE.norm>
-0.0325628

>  <RMSD>
10.971

$$$$
ligand
 OpenBabel01301917533D
libRbt.so/2013.1/901 2013/11/27
 34 36  0  0  0  0  0  0  0  0999 V2000
   19.6246   37.7856   27.4887 C   0  0  2  0  0  0  0  0  0  0  0  0
   19.5877   36.3662   27.3093 O   0  0  0  0  0  0  0  0  0  0  0  0
   17.4287   35.4170   30.8926 C   0  0  2  0  0  0  0  0  0  0  0  0
   16.5667   34.7321   31.8654 N   0  0  0  0  0  0  0  0  0  0  0  0
   19.4404   33.0718   32.4960 C   0  0  2  0  0  0  0  0  0  0  0  0
   20.7451   38.3675   26.5471 C   0  0  2  0  0  0  0  0  0  0  0  0
   20.4716   38.0368   25.1393 N   0  0  0  0  0  0  0  0  0  0  0  0
   16.5958   35.6220   29.5760 C   0  0  0  0  0  0  0  0  0  0  0  0
   20.8399   32.9391   33.2165 C   0  0  2  0  0  0  0  0  0  0  0  0
   20.9932   33.9613   34.1861 O   0  0  0  0  0  0  0  0  0  0  0  0
   22.1407   37.8143   26.9657 C   0  0  1  0  0  0  0  0  0  0  0  0
   23.1681   38.3436   26.1073 O   0  0  0  0  0  0  0  0  0  0  0  0
   17.5110   36.3708   28.5445 C   0  0  2  0  0  0  0  0  0  0  0  0
   16.7840   36.5949   27.2624 N   0  0  0  0  0  0  0  0  0  0  0  0
   21.9680   33.0508   32.1222 C   0  0  1  0  0  0  0  0  0  0  0  0
   23.3079   32.9705   32.7378 N   0  0  0  0  0  0  0  0  0  0  0  0
   22.3881   38.1852   28.4467 C   0  0  2  0  0  0  0  0  0  0  0  0
   23.6718   37.6963   28.8482 O   0  0  0  0  0  0  0  0  0  0  0  0
   18.8039   35.5508   28.2522 C   0  0  2  0  0  0  0  0  0  0  0  0
   21.7794   31.9047   31.0786 C   0  0  1  0  0  0  0  0  0  0  0  0
   21.9169   30.6571   31.7508 O   0  0  0  0  0  0  0  0  0  0  0  0
   21.2234   37.5630   29.3311 C   0  0  2  0  0  0  0  0  0  0  0  0
   19.9047   38.0725   28.8936 O   0  0  0  0  0  0  0  0  0  0  0  0
   19.5663   35.3098   29.5834 C   0  0  2  0  0  0  0  0  0  0  0  0
   20.7260   34.5323   29.2931 O   0  0  0  0  0  0  0  0  0  0  0  0
   20.3514   32.0197   30.4548 C   0  0  0  0  0  0  0  0  0  0  0  0
   19.3017   31.9900   31.5014 O   0  0  0  0  0  0  0  0  0  0  0  0
   21.3817   37.8866   30.8446 C   0  0  2  0  0  0  0  0  0  0  0  0
   22.3065   36.9636   31.4301 O   0  0  0  0  0  0  0  0  0  0  0  0
   18.7086   34.5220   30.6042 C   0  0  1  0  0  0  0  0  0  0  0  0
   19.4914   34.3690   31.8202 O   0  0  0  0  0  0  0  0  0  0  0  0
   20.0728   37.7696   31.5939 C   0  0  0  0  0  0  0  0  0  0  0  0
   22.8287   31.9567   29.9672 C   0  0  0  0  0  0  0  0  0  0  0  0
   23.9521   34.2968   32.5747 C   0  0  0  0  0  0  0  0  0  0  0  0
  1  2  1  1  0  0  0
  1  6  1  0  0  0  0
  1 23  1  0  0  0  0
  3  4  1  1  0  0  0
  3  8  1  0  0  0  0
  3 30  1  0  0  0  0
  5  9  1  0  0  0  0
  5 27  1  0  0  0  0
  5 31  1  6  0  0  0
  6  7  1  6  0  0  0
  6 11  1  0  0  0  0
  8 13  1  0  0  0  0
  9 10  1  1  0  0  0
  9 15  1  0  0  0  0
 11 12  1  6  0  0  0
 11 17  1  0  0  0  0
 13 14  1  6  0  0  0
 13 19  1  0  0  0  0
 15 16  1  1  0  0  0
 15 20  1  0  0  0  0
 16 34  1  0  0  0  0
 17 18  1  1  0  0  0
 17 22  1  0  0  0  0
 19  2  1  6  0  0  0
 19 24  1  0  0  0  0
 20 21  1  1  0  0  0
 20 26  1  0  0  0  0
 20 33  1  0  0  0  0
 22 23  1  6  0  0  0
 22 28  1  0  0  0  0
 24 25  1  6  0  0  0
 24 30  1  0  0  0  0
 26 27  1  0  0  0  0
 28 29  1  1  0  0  0
 28 32  1  0  0  0  0
 30 31  1  1  0  0  0
M  END
>  <CHROM.1>
168.68554260,39.10522227,-112.68942037,-82.06070157,106.03343083,150.89195181
20.49958899,35.36215651,29.98165047,1.64685682,-0.08103712,-0.75411517

>  <Name>
ligand

>  <RI>
0

>  <Rbt.Current_Directory>
/home/itssahil/PROJECTS/Mol_Feturizer/New_Systems/rnas/4p3s

>  <Rbt.Executable>
rbdock ($Id: //depot/dev/client3/rdock/2013.1/src/exe/rbdock.cxx#4 $)

>  <Rbt.Library>
libRbt.so (2013.1, Build901 2013/11/27)

>  <Rbt.Parameter_File>
/export/apps/rDock/src/rDock_2013.1_src/data/scripts/dock_solv.prm

>  <Rbt.Receptor>
prm/blind_docking_100.prm

>  <SCORE>
7.16479

>  <SCORE.INTER>
1.61837

>  <SCORE.INTER.CONST>
1

>  <SCORE.INTER.POLAR>
0

>  <SCORE.INTER.ROT>
6

>  <SCORE.INTER.SOLV>
20.7632

>  <SCORE.INTER.VDW>
-13.4421

>  <SCORE.INTER.norm>
0.0475991

>  <SCORE.INTRA>
2.71647

>  <SCORE.INTRA.DIHEDRAL>
-0.848893

>  <SCORE.INTRA.DIHEDRAL.0>
15.8194

>  <SCORE.INTRA.POLAR>
0

>  <SCORE.INTRA.POLAR.0>
0

>  <SCORE.INTRA.REPUL>
0

>  <SCORE.INTRA.REPUL.0>
0

>  <SCORE.INTRA.SOLV>
1.18802

>  <SCORE.INTRA.SOLV.lig_0>
-71.9159

>  <SCORE.INTRA.VDW>
2.54691

>  <SCORE.INTRA.VDW.0>
-3.53918

>  <SCORE.INTRA.norm>
0.0798963

>  <SCORE.RESTR>
2.82995

>  <SCORE.RESTR.CAVITY>
2.82995

>  <SCORE.RESTR.norm>
0.0832337

>  <SCORE.SYSTEM>
0

>  <SCORE.SYSTEM.CONST>
0

>  <SCORE.SYSTEM.DIHEDRAL>
0

>  <SCORE.SYSTEM.SOLV>
0

>  <SCORE.SYSTEM.norm>
0

>  <SCORE.heavy>
34

>  <SCORE.norm>
0.210729

>  <RMSD>
11.324

$$$$
ligand
 OpenBabel01301917533D
libRbt.so/2013.1/901 2013/11/27
 34 36  0  0  0  0  0  0  0  0999 V2000
   19.7782   39.6048   30.3102 C   0  0  2  0  0  0  0  0  0  0  0  0
   21.1010   39.2625   30.7360 O   0  0  0  0  0  0  0  0  0  0  0  0
   21.5191   35.6579   28.4481 C   0  0  2  0  0  0  0  0  0  0  0  0
   22.1023   34.5470   27.6836 N   0  0  0  0  0  0  0  0  0  0  0  0
   22.5181   33.5314   31.2878 C   0  0  2  0  0  0  0  0  0  0  0  0
   19.1656   40.5958   31.3701 C   0  0  2  0  0  0  0  0  0  0  0  0
   19.9922   41.8071   31.4952 N   0  0  0  0  0  0  0  0  0  0  0  0
   21.9969   36.9992   27.7833 C   0  0  0  0  0  0  0  0  0  0  0  0
   22.7428   32.2714   30.3619 C   0  0  2  0  0  0  0  0  0  0  0  0
   23.2935   32.6670   29.1175 O   0  0  0  0  0  0  0  0  0  0  0  0
   19.0357   39.8909   32.7540 C   0  0  1  0  0  0  0  0  0  0  0  0
   18.4762   40.7935   33.7260 O   0  0  0  0  0  0  0  0  0  0  0  0
   21.3578   38.1846   28.5887 C   0  0  2  0  0  0  0  0  0  0  0  0
   21.7750   39.4956   28.0145 N   0  0  0  0  0  0  0  0  0  0  0  0
   21.3501   31.5678   30.1439 C   0  0  1  0  0  0  0  0  0  0  0  0
   21.4854   30.3977   29.2531 N   0  0  0  0  0  0  0  0  0  0  0  0
   18.1599   38.6283   32.5779 C   0  0  2  0  0  0  0  0  0  0  0  0
   18.0177   37.9718   33.8415 O   0  0  0  0  0  0  0  0  0  0  0  0
   21.7867   38.1328   30.0863 C   0  0  2  0  0  0  0  0  0  0  0  0
   20.7775   31.1327   31.5299 C   0  0  1  0  0  0  0  0  0  0  0  0
   21.6764   30.1954   32.1138 O   0  0  0  0  0  0  0  0  0  0  0  0
   18.8414   37.6795   31.5002 C   0  0  2  0  0  0  0  0  0  0  0  0
   18.9889   38.3799   30.2048 O   0  0  0  0  0  0  0  0  0  0  0  0
   21.3587   36.7685   30.6920 C   0  0  2  0  0  0  0  0  0  0  0  0
   21.7898   36.7345   32.0510 O   0  0  0  0  0  0  0  0  0  0  0  0
   20.6545   32.3941   32.4438 C   0  0  0  0  0  0  0  0  0  0  0  0
   21.9561   33.0908   32.5797 O   0  0  0  0  0  0  0  0  0  0  0  0
   18.0284   36.3772   31.2486 C   0  0  2  0  0  0  0  0  0  0  0  0
   18.5557   35.7066   30.0987 O   0  0  0  0  0  0  0  0  0  0  0  0
   22.0183   35.5777   29.9536 C   0  0  1  0  0  0  0  0  0  0  0  0
   21.5402   34.3507   30.5703 O   0  0  0  0  0  0  0  0  0  0  0  0
   16.5645   36.6585   30.9905 C   0  0  0  0  0  0  0  0  0  0  0  0
   19.4114   30.4567   31.4045 C   0  0  0  0  0  0  0  0  0  0  0  0
   21.0123   30.8063   27.9078 C   0  0  0  0  0  0  0  0  0  0  0  0
  1  2  1  1  0  0  0
  1  6  1  0  0  0  0
  1 23  1  0  0  0  0
  3  4  1  6  0  0  0
  3  8  1  0  0  0  0
  3 30  1  0  0  0  0
  5  9  1  0  0  0  0
  5 27  1  0  0  0  0
  5 31  1  6  0  0  0
  6  7  1  1  0  0  0
  6 11  1  0  0  0  0
  8 13  1  0  0  0  0
  9 10  1  6  0  0  0
  9 15  1  0  0  0  0
 11 12  1  1  0  0  0
 11 17  1  0  0  0  0
 13 14  1  6  0  0  0
 13 19  1  0  0  0  0
 15 16  1  6  0  0  0
 15 20  1  0  0  0  0
 16 34  1  0  0  0  0
 17 18  1  1  0  0  0
 17 22  1  0  0  0  0
 19  2  1  1  0  0  0
 19 24  1  0  0  0  0
 20 21  1  1  0  0  0
 20 26  1  0  0  0  0
 20 33  1  0  0  0  0
 22 23  1  6  0  0  0
 22 28  1  0  0  0  0
 24 25  1  1  0  0  0
 24 30  1  0  0  0  0
 26 27  1  0  0  0  0
 28 29  1  6  0  0  0
 28 32  1  0  0  0  0
 30 31  1  1  0  0  0
M  END
>  <CHROM.1>
166.93399617,36.41944403,-101.49916040,168.95807541,130.85675311,-107.67457133
20.54257872,35.80900112,30.69983407,-1.99240012,-0.87951157,2.94964920

>  <Name>
ligand

>  <RI>
0

>  <Rbt.Current_Directory>
/home/itssahil/PROJECTS/Mol_Feturizer/New_Systems/rnas/4p3s

>  <Rbt.Executable>
rbdock ($Id: //depot/dev/client3/rdock/2013.1/src/exe/rbdock.cxx#4 $)

>  <Rbt.Library>
libRbt.so (2013.1, Build901 2013/11/27)

>  <Rbt.Parameter_File>
/export/apps/rDock/src/rDock_2013.1_src/data/scripts/dock_solv.prm

>  <Rbt.Receptor>
prm/blind_docking_60.prm

>  <SCORE>
7.86342

>  <SCORE.INTER>
-4.53311

>  <SCORE.INTER.CONST>
1

>  <SCORE.INTER.POLAR>
0

>  <SCORE.INTER.ROT>
6

>  <SCORE.INTER.SOLV>
16.2571

>  <SCORE.INTER.VDW>
-16.0411

>  <SCORE.INTER.norm>
-0.133327

>  <SCORE.INTRA>
4.58742

>  <SCORE.INTRA.DIHEDRAL>
1.81306

>  <SCORE.INTRA.DIHEDRAL.0>
15.8194

>  <SCORE.INTRA.POLAR>
0

>  <SCORE.INTRA.POLAR.0>
0

>  <SCORE.INTRA.REPUL>
0

>  <SCORE.INTRA.REPUL.0>
0

>  <SCORE.INTRA.SOLV>
3.02996

>  <SCORE.INTRA.SOLV.lig_0>
-71.9159

>  <SCORE.INTRA.VDW>
2.16591

>  <SCORE.INTRA.VDW.0>
-3.53918

>  <SCORE.INTRA.norm>
0.134924

>  <SCORE.RESTR>
7.80911

>  <SCORE.RESTR.CAVITY>
7.80911

>  <SCORE.RESTR.norm>
0.22968

>  <SCORE.SYSTEM>
0

>  <SCORE.SYSTEM.CONST>
0

>  <SCORE.SYSTEM.DIHEDRAL>
0

>  <SCORE.SYSTEM.SOLV>
0

>  <SCORE.SYSTEM.norm>
0

>  <SCORE.heavy>
34

>  <SCORE.norm>
0.231277

>  <RMSD>
11.354

$$$$
ligand
 OpenBabel01301917533D
libRbt.so/2013.1/901 2013/11/27
 34 36  0  0  0  0  0  0  0  0999 V2000
   19.8658   38.3776   32.2566 C   0  0  2  0  0  0  0  0  0  0  0  0
   18.5958   38.1235   31.6479 O   0  0  0  0  0  0  0  0  0  0  0  0
   17.1551   34.6187   29.6370 C   0  0  2  0  0  0  0  0  0  0  0  0
   16.9106   33.5979   28.6090 N   0  0  0  0  0  0  0  0  0  0  0  0
   19.8355   32.3882   29.8509 C   0  0  2  0  0  0  0  0  0  0  0  0
   19.9689   39.9228   32.5437 C   0  0  2  0  0  0  0  0  0  0  0  0
   18.8796   40.3660   33.4287 N   0  0  0  0  0  0  0  0  0  0  0  0
   16.7738   36.0150   29.0253 C   0  0  0  0  0  0  0  0  0  0  0  0
   20.4977   31.4226   30.9113 C   0  0  2  0  0  0  0  0  0  0  0  0
   19.4996   30.6880   31.5989 O   0  0  0  0  0  0  0  0  0  0  0  0
   19.9313   40.7224   31.2065 C   0  0  1  0  0  0  0  0  0  0  0  0
   20.0250   42.1356   31.4643 O   0  0  0  0  0  0  0  0  0  0  0  0
   17.0170   37.1022   30.1303 C   0  0  2  0  0  0  0  0  0  0  0  0
   16.6800   38.4599   29.6152 N   0  0  0  0  0  0  0  0  0  0  0  0
   21.3254   32.3001   31.9248 C   0  0  1  0  0  0  0  0  0  0  0  0
   21.9430   31.4572   32.9683 N   0  0  0  0  0  0  0  0  0  0  0  0
   21.0906   40.2283   30.3099 C   0  0  2  0  0  0  0  0  0  0  0  0
   21.0815   40.9595   29.0798 O   0  0  0  0  0  0  0  0  0  0  0  0
   18.5043   37.0966   30.5965 C   0  0  2  0  0  0  0  0  0  0  0  0
   22.4233   33.0849   31.1394 C   0  0  1  0  0  0  0  0  0  0  0  0
   23.2995   32.1431   30.5290 O   0  0  0  0  0  0  0  0  0  0  0  0
   20.9169   38.6678   30.0631 C   0  0  2  0  0  0  0  0  0  0  0  0
   20.9184   37.9315   31.3468 O   0  0  0  0  0  0  0  0  0  0  0  0
   18.8652   35.6843   31.1319 C   0  0  2  0  0  0  0  0  0  0  0  0
   20.2369   35.6975   31.5217 O   0  0  0  0  0  0  0  0  0  0  0  0
   21.7327   33.9588   30.0435 C   0  0  0  0  0  0  0  0  0  0  0  0
   20.8958   33.1312   29.1419 O   0  0  0  0  0  0  0  0  0  0  0  0
   22.0438   38.0730   29.1706 C   0  0  2  0  0  0  0  0  0  0  0  0
   21.7203   36.7172   28.8434 O   0  0  0  0  0  0  0  0  0  0  0  0
   18.6895   34.5940   30.0462 C   0  0  1  0  0  0  0  0  0  0  0  0
   19.0230   33.3113   30.6445 O   0  0  0  0  0  0  0  0  0  0  0  0
   23.3859   38.0738   29.8687 C   0  0  0  0  0  0  0  0  0  0  0  0
   23.2604   33.9796   32.0546 C   0  0  0  0  0  0  0  0  0  0  0  0
   21.8822   32.2128   34.2436 C   0  0  0  0  0  0  0  0  0  0  0  0
  1  2  1  6  0  0  0
  1  6  1  0  0  0  0
  1 23  1  0  0  0  0
  3  4  1  6  0  0  0
  3  8  1  0  0  0  0
  3 30  1  0  0  0  0
  5  9  1  0  0  0  0
  5 27  1  0  0  0  0
  5 31  1  1  0  0  0
  6  7  1  1  0  0  0
  6 11  1  0  0  0  0
  8 13  1  0  0  0  0
  9 10  1  1  0  0  0
  9 15  1  0  0  0  0
 11 12  1  1  0  0  0
 11 17  1  0  0  0  0
 13 14  1  6  0  0  0
 13 19  1  0  0  0  0
 15 16  1  1  0  0  0
 15 20  1  0  0  0  0
 16 34  1  0  0  0  0
 17 18  1  6  0  0  0
 17 22  1  0  0  0  0
 19  2  1  1  0  0  0
 19 24  1  0  0  0  0
 20 21  1  6  0  0  0
 20 26  1  0  0  0  0
 20 33  1  0  0  0  0
 22 23  1  1  0  0  0
 22 28  1  0  0  0  0
 24 25  1  6  0  0  0
 24 30  1  0  0  0  0
 26 27  1  0  0  0  0
 28 29  1  1  0  0  0
 28 32  1  0  0  0  0
 30 31  1  1  0  0  0
M  END
>  <CHROM.1>
143.43885252,-178.51015186,-142.62088911,-172.08035604,107.38249200,157.73362532
20.17989554,35.97082555,30.78285438,-1.71223462,0.28122804,3.13590485

>  <Name>
ligand

>  <RI>
0

>  <Rbt.Current_Directory>
/home/itssahil/PROJECTS/Mol_Feturizer/New_Systems/rnas/4p3s

>  <Rbt.Executable>
rbdock ($Id: //depot/dev/client3/rdock/2013.1/src/exe/rbdock.cxx#4 $)

>  <Rbt.Library>
libRbt.so (2013.1, Build901 2013/11/27)

>  <Rbt.Parameter_File>
/export/apps/rDock/src/rDock_2013.1_src/data/scripts/dock_solv.prm

>  <Rbt.Receptor>
prm/blind_docking_60.prm

>  <SCORE>
14.0574

>  <SCORE.INTER>
1.76032

>  <SCORE.INTER.CONST>
1

>  <SCORE.INTER.POLAR>
0

>  <SCORE.INTER.ROT>
6

>  <SCORE.INTER.SOLV>
20.6568

>  <SCORE.INTER.VDW>
-13.312

>  <SCORE.INTER.norm>
0.051774

>  <SCORE.INTRA>
3.38652

>  <SCORE.INTRA.DIHEDRAL>
-1.33008

>  <SCORE.INTRA.DIHEDRAL.0>
15.8194

>  <SCORE.INTRA.POLAR>
0

>  <SCORE.INTRA.POLAR.0>
0

>  <SCORE.INTRA.REPUL>
0

>  <SCORE.INTRA.REPUL.0>
0

>  <SCORE.INTRA.SOLV>
0.0598635

>  <SCORE.INTRA.SOLV.lig_0>
-71.9159

>  <SCORE.INTRA.VDW>
4.02163

>  <SCORE.INTRA.VDW.0>
-3.53918

>  <SCORE.INTRA.norm>
0.0996037

>  <SCORE.RESTR>
8.91059

>  <SCORE.RESTR.CAVITY>
8.91059

>  <SCORE.RESTR.norm>
0.262076

>  <SCORE.SYSTEM>
0

>  <SCORE.SYSTEM.CONST>
0

>  <SCORE.SYSTEM.DIHEDRAL>
0

>  <SCORE.SYSTEM.SOLV>
0

>  <SCORE.SYSTEM.norm>
0

>  <SCORE.heavy>
34

>  <SCORE.norm>
0.413454

>  <RMSD>
11.411

$$$$
ligand
 OpenBabel01301917533D
libRbt.so/2013.1/901 2013/11/27
 34 36  0  0  0  0  0  0  0  0999 V2000
   20.5603   39.0118   29.6275 C   0  0  2  0  0  0  0  0  0  0  0  0
   21.5231   38.1511   30.2444 O   0  0  0  0  0  0  0  0  0  0  0  0
   22.1422   35.4286   26.9876 C   0  0  2  0  0  0  0  0  0  0  0  0
   22.7813   34.5098   26.0358 N   0  0  0  0  0  0  0  0  0  0  0  0
   22.1096   32.2888   28.4193 C   0  0  2  0  0  0  0  0  0  0  0  0
   19.8237   39.8145   30.7650 C   0  0  2  0  0  0  0  0  0  0  0  0
   20.7821   40.6030   31.5560 N   0  0  0  0  0  0  0  0  0  0  0  0
   22.9553   36.7731   26.9744 C   0  0  0  0  0  0  0  0  0  0  0  0
   21.0560   31.2097   28.8890 C   0  0  2  0  0  0  0  0  0  0  0  0
   19.9761   31.1450   27.9735 O   0  0  0  0  0  0  0  0  0  0  0  0
   19.0400   38.8373   31.6923 C   0  0  1  0  0  0  0  0  0  0  0  0
   18.3652   39.5670   32.7338 O   0  0  0  0  0  0  0  0  0  0  0  0
   22.2606   37.7604   27.9768 C   0  0  2  0  0  0  0  0  0  0  0  0
   22.9860   39.0620   28.0206 N   0  0  0  0  0  0  0  0  0  0  0  0
   20.5361   31.6208   30.3184 C   0  0  1  0  0  0  0  0  0  0  0  0
   19.5166   30.6680   30.8017 N   0  0  0  0  0  0  0  0  0  0  0  0
   18.0452   38.0327   30.8234 C   0  0  2  0  0  0  0  0  0  0  0  0
   17.3056   37.1365   31.6588 O   0  0  0  0  0  0  0  0  0  0  0  0
   22.2234   37.1574   29.4136 C   0  0  2  0  0  0  0  0  0  0  0  0
   21.7456   31.6697   31.3048 C   0  0  1  0  0  0  0  0  0  0  0  0
   22.3152   30.3670   31.3830 O   0  0  0  0  0  0  0  0  0  0  0  0
   18.8597   37.2505   29.7050 C   0  0  2  0  0  0  0  0  0  0  0  0
   19.6252   38.1933   28.8593 O   0  0  0  0  0  0  0  0  0  0  0  0
   21.4719   35.7989   29.3768 C   0  0  2  0  0  0  0  0  0  0  0  0
   21.4796   35.2547   30.6949 O   0  0  0  0  0  0  0  0  0  0  0  0
   22.8028   32.6819   30.7576 C   0  0  0  0  0  0  0  0  0  0  0  0
   23.2277   32.3273   29.3822 O   0  0  0  0  0  0  0  0  0  0  0  0
   17.9412   36.4103   28.7718 C   0  0  2  0  0  0  0  0  0  0  0  0
   16.8152   37.2031   28.3799 O   0  0  0  0  0  0  0  0  0  0  0  0
   22.1660   34.7816   28.4379 C   0  0  1  0  0  0  0  0  0  0  0  0
   21.3807   33.5577   28.4482 O   0  0  0  0  0  0  0  0  0  0  0  0
   17.4171   35.1665   29.4551 C   0  0  0  0  0  0  0  0  0  0  0  0
   21.3243   32.0827   32.7157 C   0  0  0  0  0  0  0  0  0  0  0  0
   18.3045   31.4509   31.1461 C   0  0  0  0  0  0  0  0  0  0  0  0
  1  2  1  1  0  0  0
  1  6  1  0  0  0  0
  1 23  1  0  0  0  0
  3  4  1  6  0  0  0
  3  8  1  0  0  0  0
  3 30  1  0  0  0  0
  5  9  1  0  0  0  0
  5 27  1  0  0  0  0
  5 31  1  1  0  0  0
  6  7  1  1  0  0  0
  6 11  1  0  0  0  0
  8 13  1  0  0  0  0
  9 10  1  6  0  0  0
  9 15  1  0  0  0  0
 11 12  1  1  0  0  0
 11 17  1  0  0  0  0
 13 14  1  1  0  0  0
 13 19  1  0  0  0  0
 15 16  1  1  0  0  0
 15 20  1  0  0  0  0
 16 34  1  0  0  0  0
 17 18  1  1  0  0  0
 17 22  1  0  0  0  0
 19  2  1  1  0  0  0
 19 24  1  0  0  0  0
 20 21  1  1  0  0  0
 20 26  1  0  0  0  0
 20 33  1  0  0  0  0
 22 23  1  6  0  0  0
 22 28  1  0  0  0  0
 24 25  1  1  0  0  0
 24 30  1  0  0  0  0
 26 27  1  0  0  0  0
 28 29  1  1  0  0  0
 28 32  1  0  0  0  0
 30 31  1  6  0  0  0
M  END
>  <CHROM.1>
171.84387971,28.01261040,-124.98863306,45.57888551,102.83988219,162.82364435
20.58273512,35.35668263,29.72101614,-1.86458657,-0.64361700,3.01075399

>  <Name>
ligand

>  <RI>
0

>  <Rbt.Current_Directory>
/home/itssahil/PROJECTS/Mol_Feturizer/New_Systems/rnas/4p3s

>  <Rbt.Executable>
rbdock ($Id: //depot/dev/client3/rdock/2013.1/src/exe/rbdock.cxx#4 $)

>  <Rbt.Library>
libRbt.so (2013.1, Build901 2013/11/27)

>  <Rbt.Parameter_File>
/export/apps/rDock/src/rDock_2013.1_src/data/scripts/dock_solv.prm

>  <Rbt.Receptor>
prm/blind_docking_100.prm

>  <SCORE>
-2.42868

>  <SCORE.INTER>
-5.54919

>  <SCORE.INTER.CONST>
1

>  <SCORE.INTER.POLAR>
0

>  <SCORE.INTER.ROT>
6

>  <SCORE.INTER.SOLV>
13.6409

>  <SCORE.INTER.VDW>
-15.8464

>  <SCORE.INTER.norm>
-0.163212

>  <SCORE.INTRA>
1.16336

>  <SCORE.INTRA.DIHEDRAL>
-2.44231

>  <SCORE.INTRA.DIHEDRAL.0>
15.8194

>  <SCORE.INTRA.POLAR>
0

>  <SCORE.INTRA.POLAR.0>
0

>  <SCORE.INTRA.REPUL>
0

>  <SCORE.INTRA.REPUL.0>
0

>  <SCORE.INTRA.SOLV>
0.583133

>  <SCORE.INTRA.SOLV.lig_0>
-71.9159

>  <SCORE.INTRA.VDW>
2.09295

>  <SCORE.INTRA.VDW.0>
-3.53918

>  <SCORE.INTRA.norm>
0.0342166

>  <SCORE.RESTR>
1.95715

>  <SCORE.RESTR.CAVITY>
1.95715

>  <SCORE.RESTR.norm>
0.0575631

>  <SCORE.SYSTEM>
0

>  <SCORE.SYSTEM.CONST>
0

>  <SCORE.SYSTEM.DIHEDRAL>
0

>  <SCORE.SYSTEM.SOLV>
0

>  <SCORE.SYSTEM.norm>
0

>  <SCORE.heavy>
34

>  <SCORE.norm>
-0.0714319

>  <RMSD>
11.458

$$$$
ligand
 OpenBabel01301917533D
libRbt.so/2013.1/901 2013/11/27
 34 36  0  0  0  0  0  0  0  0999 V2000
   20.3722   38.2288   27.1522 C   0  0  2  0  0  0  0  0  0  0  0  0
   20.0946   36.8286   27.0493 O   0  0  0  0  0  0  0  0  0  0  0  0
   17.8059   36.3607   30.6472 C   0  0  2  0  0  0  0  0  0  0  0  0
   16.7968   35.9047   31.6128 N   0  0  0  0  0  0  0  0  0  0  0  0
   19.0543   33.4737   32.1055 C   0  0  2  0  0  0  0  0  0  0  0  0
   21.7213   38.5159   26.3917 C   0  0  2  0  0  0  0  0  0  0  0  0
   21.6225   38.1165   24.9786 N   0  0  0  0  0  0  0  0  0  0  0  0
   17.0488   36.8639   29.3655 C   0  0  0  0  0  0  0  0  0  0  0  0
   20.2598   33.0562   33.0371 C   0  0  2  0  0  0  0  0  0  0  0  0
   20.4740   34.0392   34.0352 O   0  0  0  0  0  0  0  0  0  0  0  0
   22.8984   37.7615   27.0804 C   0  0  1  0  0  0  0  0  0  0  0  0
   24.1337   38.0211   26.3882 O   0  0  0  0  0  0  0  0  0  0  0  0
   18.1263   37.3687   28.3426 C   0  0  2  0  0  0  0  0  0  0  0  0
   17.4767   37.8580   27.0932 N   0  0  0  0  0  0  0  0  0  0  0  0
   21.5444   32.9018   32.1381 C   0  0  1  0  0  0  0  0  0  0  0  0
   22.7205   32.5463   32.9574 N   0  0  0  0  0  0  0  0  0  0  0  0
   22.9677   38.2114   28.5585 C   0  0  2  0  0  0  0  0  0  0  0  0
   24.0515   37.5385   29.2071 O   0  0  0  0  0  0  0  0  0  0  0  0
   19.1222   36.2268   27.9770 C   0  0  2  0  0  0  0  0  0  0  0  0
   21.2813   31.8040   31.0593 C   0  0  1  0  0  0  0  0  0  0  0  0
   21.0382   30.5688   31.7246 O   0  0  0  0  0  0  0  0  0  0  0  0
   21.5774   37.8876   29.2573 C   0  0  2  0  0  0  0  0  0  0  0  0
   20.4694   38.5839   28.5660 O   0  0  0  0  0  0  0  0  0  0  0  0
   19.8016   35.7086   29.2737 C   0  0  2  0  0  0  0  0  0  0  0  0
   20.6824   34.6457   28.9158 O   0  0  0  0  0  0  0  0  0  0  0  0
   20.0292   32.2122   30.2184 C   0  0  0  0  0  0  0  0  0  0  0  0
   18.8453   32.4287   31.0842 O   0  0  0  0  0  0  0  0  0  0  0  0
   21.5461   38.3100   30.7543 C   0  0  2  0  0  0  0  0  0  0  0  0
   22.0256   37.2278   31.5599 O   0  0  0  0  0  0  0  0  0  0  0  0
   18.7676   35.1506   30.2826 C   0  0  1  0  0  0  0  0  0  0  0  0
   19.4904   34.7166   31.4675 O   0  0  0  0  0  0  0  0  0  0  0  0
   20.1489   38.6527   31.2222 C   0  0  0  0  0  0  0  0  0  0  0  0
   22.4799   31.6080   30.1299 C   0  0  0  0  0  0  0  0  0  0  0  0
   23.4848   33.7939   33.2027 C   0  0  0  0  0  0  0  0  0  0  0  0
  1  2  1  1  0  0  0
  1  6  1  0  0  0  0
  1 23  1  0  0  0  0
  3  4  1  1  0  0  0
  3  8  1  0  0  0  0
  3 30  1  0  0  0  0
  5  9  1  0  0  0  0
  5 27  1  0  0  0  0
  5 31  1  6  0  0  0
  6  7  1  6  0  0  0
  6 11  1  0  0  0  0
  8 13  1  0  0  0  0
  9 10  1  1  0  0  0
  9 15  1  0  0  0  0
 11 12  1  6  0  0  0
 11 17  1  0  0  0  0
 13 14  1  6  0  0  0
 13 19  1  0  0  0  0
 15 16  1  1  0  0  0
 15 20  1  0  0  0  0
 16 34  1  0  0  0  0
 17 18  1  1  0  0  0
 17 22  1  0  0  0  0
 19  2  1  6  0  0  0
 19 24  1  0  0  0  0
 20 21  1  1  0  0  0
 20 26  1  0  0  0  0
 20 33  1  0  0  0  0
 22 23  1  6  0  0  0
 22 28  1  0  0  0  0
 24 25  1  6  0  0  0
 24 30  1  0  0  0  0
 26 27  1  0  0  0  0
 28 29  1  1  0  0  0
 28 32  1  0  0  0  0
 30 31  1  1  0  0  0
M  END
>  <CHROM.1>
162.63351863,28.62949526,-98.81515853,-88.78167329,104.53792182,163.14635561
20.62110033,35.66082441,29.86998745,1.51536775,0.08010260,-0.71118912

>  <Name>
ligand

>  <RI>
0

>  <Rbt.Current_Directory>
/home/itssahil/PROJECTS/Mol_Feturizer/New_Systems/rnas/4p3s

>  <Rbt.Executable>
rbdock ($Id: //depot/dev/client3/rdock/2013.1/src/exe/rbdock.cxx#4 $)

>  <Rbt.Library>
libRbt.so (2013.1, Build901 2013/11/27)

>  <Rbt.Parameter_File>
/export/apps/rDock/src/rDock_2013.1_src/data/scripts/dock_solv.prm

>  <Rbt.Receptor>
prm/blind_docking_100.prm

>  <SCORE>
10.0836

>  <SCORE.INTER>
2.74867

>  <SCORE.INTER.CONST>
1

>  <SCORE.INTER.POLAR>
0

>  <SCORE.INTER.ROT>
6

>  <SCORE.INTER.SOLV>
19.5698

>  <SCORE.INTER.VDW>
-12.2908

>  <SCORE.INTER.norm>
0.0808433

>  <SCORE.INTRA>
4.87517

>  <SCORE.INTRA.DIHEDRAL>
0.157147

>  <SCORE.INTRA.DIHEDRAL.0>
15.8194

>  <SCORE.INTRA.POLAR>
0

>  <SCORE.INTRA.POLAR.0>
0

>  <SCORE.INTRA.REPUL>
0

>  <SCORE.INTRA.REPUL.0>
0

>  <SCORE.INTRA.SOLV>
1.29608

>  <SCORE.INTRA.SOLV.lig_0>
-71.9159

>  <SCORE.INTRA.VDW>
4.14856

>  <SCORE.INTRA.VDW.0>
-3.53918

>  <SCORE.INTRA.norm>
0.143387

>  <SCORE.RESTR>
2.45973

>  <SCORE.RESTR.CAVITY>
2.45973

>  <SCORE.RESTR.norm>
0.0723449

>  <SCORE.SYSTEM>
0

>  <SCORE.SYSTEM.CONST>
0

>  <SCORE.SYSTEM.DIHEDRAL>
0

>  <SCORE.SYSTEM.SOLV>
0

>  <SCORE.SYSTEM.norm>
0

>  <SCORE.heavy>
34

>  <SCORE.norm>
0.296576

>  <RMSD>
11.730

$$$$
