@<TRIPOS>MOLECULE
4p3s_rdock.pdb
 511 568 0 0 0
SMALL
GASTEIGER

@<TRIPOS>ATOM
      1  P         21.5960   40.1220   22.7860 P.3    12  C12         0.1280
      2  C5'       20.1520   42.0550   23.8350 C.3    12  C12         0.1795
      3  O5'       20.2870   40.6670   23.5200 O.3    12  C12        -0.3259
      4  C4'       18.7110   42.4000   24.1080 C.3    12  C12         0.1772
      5  O4'       17.8940   41.9670   22.9930 O.3    12  C12        -0.3307
      6  C3'       18.0690   41.7130   25.2970 C.3    12  C12         0.1860
      7  O3'       18.3980   42.4210   26.4870 O.3    12  C12        -0.3112
      8  C2'       16.5830   41.8410   24.9750 C.3    12  C12         0.2309
      9  O2'       16.0370   43.0990   25.3290 O.3    12  C12        -0.2156
     10  C1'       16.5780   41.6810   23.4510 C.3    12  C12         0.2420
     11  N1        16.2160   40.3160   23.0380 N.ar   12  C12        -0.2535
     12  C2        14.8630   39.9380   23.0680 C.ar   12  C12         0.3532
     13  O2        14.0070   40.7800   23.3770 O.2    12  C12        -0.2443
     14  N3        14.5250   38.6630   22.7590 N.ar   12  C12        -0.1739
     15  C4        15.4710   37.7830   22.4170 C.ar   12  C12         0.1759
     16  N4        15.0890   36.5300   22.1480 N.pl3  12  C12        -0.1070
     17  C5        16.8540   38.1500   22.3420 C.ar   12  C12         0.0566
     18  C6        17.1760   39.4170   22.6560 C.ar   12  C12         0.0850
     19  OP1       22.7850   40.5430   23.5680 O.3    12  C12        -0.1955
     20  OP2       21.4020   38.6840   22.4840 O.co2  12  C12        -0.7863
     21  P         18.4150   41.6480   27.8970 P.3    13  G13         0.2141
     22  C5'       16.1600   42.7240   28.6940 C.3    13  G13         0.1812
     23  O5'       16.8800   41.5600   28.3120 O.3    13  G13        -0.3114
     24  C4'       14.6950   42.3990   28.8730 C.3    13  G13         0.1773
     25  O4'       14.1370   41.9390   27.6110 O.3    13  G13        -0.3307
     26  C3'       14.3750   41.2580   29.8240 C.3    13  G13         0.1860
     27  O3'       14.4420   41.6510   31.1870 O.3    13  G13        -0.3112
     28  C2'       12.9710   40.8670   29.3810 C.3    13  G13         0.2309
     29  O2'       11.9410   41.7210   29.8420 O.3    13  G13        -0.2156
     30  C1'       13.1050   40.9960   27.8660 C.3    13  G13         0.2408
     31  N1        11.4160   36.5230   26.1900 N.ar   13  G13        -0.1709
     32  C2        10.7350   37.5270   26.8330 C.ar   13  G13         0.2606
     33  N2         9.4260   37.3190   27.0440 N.pl3  13  G13        -0.0859
     34  N3        11.2960   38.6540   27.2440 N.ar   13  G13        -0.1918
     35  C4        12.6170   38.6950   26.9590 C.ar   13  G13         0.1723
     36  C5        13.3930   37.7440   26.3330 C.ar   13  G13         0.1748
     37  C6        12.7780   36.5450   25.8910 C.ar   13  G13         0.3023
     38  O6        13.2940   35.5960   25.3090 O.2    13  G13        -0.2633
     39  N7        14.7170   38.1630   26.2500 N.ar   13  G13        -0.2173
     40  C8        14.7160   39.3450   26.8020 C.ar   13  G13         0.1817
     41  N9        13.4720   39.7330   27.2400 N.ar   13  G13        -0.2693
     42  OP1       19.1040   42.5250   28.8730 O.3    13  G13        -0.4373
     43  OP2       18.9120   40.2730   27.6630 O.co2  13  G13        -0.5172
     44  P         14.8990   40.5810   32.2900 P.3    14  A14         0.2141
     45  C5'       12.3920   40.2060   32.9710 C.3    14  A14         0.1812
     46  O5'       13.6140   39.6620   32.4870 O.3    14  A14        -0.3114
     47  C4'       11.2630   39.2290   32.7450 C.3    14  A14         0.1773
     48  O4'       11.1310   38.9630   31.3190 O.3    14  A14        -0.3307
     49  C3'       11.4530   37.8350   33.3180 C.3    14  A14         0.1860
     50  O3'       11.2000   37.7720   34.7160 O.3    14  A14        -0.3112
     51  C2'       10.4300   37.0480   32.5170 C.3    14  A14         0.2309
     52  O2'        9.1030   37.2630   32.9520 O.3    14  A14        -0.2156
     53  C1'       10.6460   37.6390   31.1240 C.3    14  A14         0.2408
     54  N1        11.6270   33.4410   28.3220 N.ar   14  A14        -0.2040
     55  C2        10.5040   33.8990   28.8920 C.ar   14  A14         0.2016
     56  N3        10.3120   35.0110   29.5970 N.ar   14  A14        -0.2048
     57  C4        11.4550   35.7070   29.7040 C.ar   14  A14         0.1692
     58  C5        12.6850   35.3690   29.1680 C.ar   14  A14         0.1518
     59  C6        12.7570   34.1750   28.4390 C.ar   14  A14         0.1919
     60  N6        13.8770   33.7360   27.8550 N.pl3  14  A14        -0.1054
     61  N7        13.6370   36.3240   29.4860 N.ar   14  A14        -0.2193
     62  C8        12.9750   37.2050   30.1940 C.ar   14  A14         0.1816
     63  N9        11.6510   36.8910   30.3720 N.ar   14  A14        -0.2693
     64  OP1       15.1650   41.3140   33.5530 O.3    14  A14        -0.4373
     65  OP2       15.9650   39.7480   31.6880 O.co2  14  A14        -0.5172
     66  P         11.9870   36.6920   35.6130 P.3    15  C15         0.2141
     67  C5'        9.9710   35.0510   35.2400 C.3    15  C15         0.1812
     68  O5'       11.3660   35.2930   35.1770 O.3    15  C15        -0.3114
     69  C4'        9.6370   33.7700   34.5110 C.3    15  C15         0.1773
     70  O4'        9.9340   33.9020   33.0920 O.3    15  C15        -0.3307
     71  C3'       10.4250   32.5270   34.8950 C.3    15  C15         0.1860
     72  O3'        9.9580   31.9730   36.1180 O.3    15  C15        -0.3112
     73  C2'       10.1150   31.6260   33.7100 C.3    15  C15         0.2309
     74  O2'        8.7850   31.1500   33.7590 O.3    15  C15        -0.2156
     75  C1'       10.2470   32.6200   32.5540 C.3    15  C15         0.2420
     76  N1        11.6140   32.6620   32.0090 N.ar   15  C15        -0.2535
     77  C2        12.0160   31.6520   31.1340 C.ar   15  C15         0.3532
     78  O2        11.1940   30.7840   30.8080 O.2    15  C15        -0.2443
     79  N3        13.2810   31.6460   30.6620 N.ar   15  C15        -0.1739
     80  C4        14.1280   32.6150   31.0180 C.ar   15  C15         0.1759
     81  N4        15.3670   32.5740   30.5230 N.pl3  15  C15        -0.1070
     82  C5        13.7380   33.6740   31.8980 C.ar   15  C15         0.0566
     83  C6        12.4840   33.6580   32.3620 C.ar   15  C15         0.0850
     84  OP1       11.6450   36.9690   37.0330 O.3    15  C15        -0.4373
     85  OP2       13.4110   36.6700   35.1920 O.co2  15  C15        -0.5172
     86  P         10.9550   31.0980   37.0320 P.3    16  G16         0.2141
     87  C5'        9.8420   28.9760   35.9610 C.3    16  G16         0.1812
     88  O5'       11.0280   29.7020   36.2690 O.3    16  G16        -0.3114
     89  C4'       10.1910   27.6960   35.2480 C.3    16  G16         0.1773
     90  O4'       10.6090   27.9520   33.8820 O.3    16  G16        -0.3307
     91  C3'       11.3560   26.9370   35.8490 C.3    16  G16         0.1860
     92  O3'       10.9080   26.1980   36.9680 O.3    16  G16        -0.3112
     93  C2'       11.7970   26.0540   34.6900 C.3    16  G16         0.2309
     94  O2'       11.0260   24.8780   34.5650 O.3    16  G16        -0.2156
     95  C1'       11.5700   26.9830   33.4910 C.3    16  G16         0.2408
     96  N1        15.7840   26.9150   30.6600 N.ar   16  G16        -0.1709
     97  C2        14.7960   25.9690   30.7690 C.ar   16  G16         0.2606
     98  N2        14.9650   24.8570   30.0510 N.pl3  16  G16        -0.0859
     99  N3        13.7260   26.1030   31.5300 N.ar   16  G16        -0.1918
    100  C4        13.7340   27.2700   32.2030 C.ar   16  G16         0.1723
    101  C5        14.6770   28.2750   32.1700 C.ar   16  G16         0.1748
    102  C6        15.8020   28.1310   31.3320 C.ar   16  G16         0.3023
    103  O6        16.7310   28.9290   31.1470 O.2    16  G16        -0.2633
    104  N7        14.3280   29.3060   33.0250 N.ar   16  G16        -0.2173
    105  C8        13.1950   28.9220   33.5480 C.ar   16  G16         0.1817
    106  N9        12.7810   27.6950   33.0970 N.ar   16  G16        -0.2693
    107  OP1       10.2710   30.8900   38.3330 O.3    16  G16        -0.4373
    108  OP2       12.3060   31.7050   37.0120 O.co2  16  G16        -0.5172
    109  P         11.9790   25.5580   37.9700 P.3    17  A17         0.2141
    110  C5'       13.5410   23.5850   37.2680 C.3    17  A17         0.1812
    111  O5'       12.2470   24.1440   37.2900 O.3    17  A17        -0.3114
    112  C4'       13.8200   22.8940   38.5740 C.3    17  A17         0.1773
    113  O4'       12.9370   21.7730   38.7660 O.3    17  A17        -0.3307
    114  C3'       15.1940   22.2750   38.6480 C.3    17  A17         0.1860
    115  O3'       16.0670   23.3110   39.0280 O.3    17  A17        -0.3112
    116  C2'       15.0430   21.2280   39.7470 C.3    17  A17         0.2309
    117  O2'       15.3270   21.7450   41.0320 O.3    17  A17        -0.2156
    118  C1'       13.5670   20.8330   39.6120 C.3    17  A17         0.2408
    119  N1        13.2780   15.8080   40.5740 N.ar   17  A17        -0.2040
    120  C2        13.5880   16.8590   41.3410 C.ar   17  A17         0.2016
    121  N3        13.6690   18.1440   41.0160 N.ar   17  A17        -0.2048
    122  C4        13.3920   18.3210   39.7180 C.ar   17  A17         0.1692
    123  C5        13.0650   17.3430   38.7950 C.ar   17  A17         0.1518
    124  C6        13.0010   16.0180   39.2700 C.ar   17  A17         0.1919
    125  N6        12.6790   14.9680   38.5120 N.pl3  17  A17        -0.1054
    126  N7        12.8600   17.9020   37.5400 N.ar   17  A17        -0.2193
    127  C8        13.0520   19.1860   37.7340 C.ar   17  A17         0.1816
    128  N9        13.3560   19.5080   39.0350 N.ar   17  A17        -0.2693
    129  OP1       11.3260   25.3090   39.2750 O.3    17  A17        -0.4373
    130  OP2       13.1990   26.4020   37.9180 O.co2  17  A17        -0.5172
    131  P         17.3600   23.5930   38.1500 P.3    18  A18         0.2141
    132  C5'       18.6870   22.5840   40.1500 C.3    18  A18         0.1812
    133  O5'       18.4130   22.5810   38.7590 O.3    18  A18        -0.3114
    134  C4'       19.2670   21.2590   40.5370 C.3    18  A18         0.1773
    135  O4'       18.2180   20.2670   40.4160 O.3    18  A18        -0.3307
    136  C3'       20.3760   20.8160   39.5940 C.3    18  A18         0.1860
    137  O3'       21.6290   21.2040   40.1540 O.3    18  A18        -0.3112
    138  C2'       20.2330   19.2950   39.5920 C.3    18  A18         0.2309
    139  O2'       20.9460   18.6950   40.6510 O.3    18  A18        -0.2156
    140  C1'       18.7290   19.0990   39.8120 C.3    18  A18         0.2408
    141  N1        15.6630   15.7580   37.3940 N.ar   18  A18        -0.2040
    142  C2        16.1800   15.7810   38.6310 C.ar   18  A18         0.2016
    143  N3        16.9540   16.7060   39.2080 N.ar   18  A18        -0.2048
    144  C4        17.1920   17.7200   38.3610 C.ar   18  A18         0.1692
    145  C5        16.7210   17.8460   37.0630 C.ar   18  A18         0.1518
    146  C6        15.9230   16.7900   36.5660 C.ar   18  A18         0.1919
    147  N6        15.4240   16.7520   35.3300 N.pl3  18  A18        -0.1054
    148  N7        17.1610   19.0350   36.4940 N.ar   18  A18        -0.2193
    149  C8        17.8930   19.5840   37.4390 C.ar   18  A18         0.1816
    150  N9        17.9680   18.8300   38.5910 N.ar   18  A18        -0.2693
    151  OP1       17.8160   24.9770   38.4450 O.3    18  A18        -0.4373
    152  OP2       17.0650   23.1940   36.7540 O.co2  18  A18        -0.5172
    153  P         22.4610   22.4300   39.5150 P.3    19  G19         0.2141
    154  C5'       23.6670   20.5540   38.1120 C.3    19  G19         0.1812
    155  O5'       23.0920   21.8590   38.1690 O.3    19  G19        -0.3114
    156  C4'       24.4730   20.3910   36.8440 C.3    19  G19         0.1773
    157  O4'       23.6150   20.5930   35.6860 O.3    19  G19        -0.3307
    158  C3'       25.6260   21.3650   36.6610 C.3    19  G19         0.1860
    159  O3'       26.8020   20.8000   37.2230 O.3    19  G19        -0.3112
    160  C2'       25.7420   21.4440   35.1450 C.3    19  G19         0.2309
    161  O2'       26.4540   20.3550   34.5970 O.3    19  G19        -0.2156
    162  C1'       24.2710   21.4110   34.7270 C.3    19  G19         0.2408
    163  N1        24.4510   26.2180   33.0610 N.ar   19  G19        -0.1709
    164  C2        25.1850   25.1340   32.6650 C.ar   19  G19         0.2606
    165  N2        26.1190   25.3720   31.7430 N.pl3  19  G19        -0.0859
    166  N3        25.0190   23.9090   33.1380 N.ar   19  G19        -0.1918
    167  C4        24.0330   23.8500   34.0550 C.ar   19  G19         0.1723
    168  C5        23.2320   24.8670   34.5170 C.ar   19  G19         0.1748
    169  C6        23.4370   26.1890   34.0090 C.ar   19  G19         0.3023
    170  O6        22.8600   27.2350   34.3200 O.2    19  G19        -0.2633
    171  N7        22.3270   24.3930   35.4590 N.ar   19  G19        -0.2173
    172  C8        22.6050   23.1240   35.5640 C.ar   19  G19         0.1817
    173  N9        23.6520   22.7340   34.7660 N.ar   19  G19        -0.2693
    174  OP1       23.5580   22.7230   40.4700 O.3    19  G19        -0.4373
    175  OP2       21.4940   23.5030   39.1510 O.co2  19  G19        -0.5172
    176  P         27.9290   21.7550   37.8480 P.3    20  U20         0.2141
    177  C5'       28.9830   21.9070   35.4550 C.3    20  U20         0.1812
    178  O5'       28.4450   22.5760   36.5890 O.3    20  U20        -0.3114
    179  C4'       29.5640   22.9100   34.4940 C.3    20  U20         0.1773
    180  O4'       28.5010   23.6550   33.8400 O.3    20  U20        -0.3307
    181  C3'       30.4600   23.9640   35.1260 C.3    20  U20         0.1860
    182  O3'       31.7900   23.4600   35.2320 O.3    20  U20        -0.3112
    183  C2'       30.3640   25.0990   34.1120 C.3    20  U20         0.2309
    184  O2'       31.1990   24.8960   32.9880 O.3    20  U20        -0.2156
    185  C1'       28.8940   25.0110   33.6930 C.3    20  U20         0.2420
    186  N1        28.0080   25.8290   34.5300 N.ar   20  U20        -0.2534
    187  C2        28.0190   27.1970   34.3410 C.ar   20  U20         0.3546
    188  O2        28.7400   27.7460   33.5320 O.2    20  U20        -0.2443
    189  N3        27.1520   27.8970   35.1430 N.ar   20  U20        -0.1530
    190  C4        26.3010   27.3770   36.0940 C.ar   20  U20         0.2846
    191  O4        25.5700   28.1320   36.7310 O.2    20  U20        -0.2650
    192  C5        26.3600   25.9590   36.2350 C.ar   20  U20         0.0814
    193  C6        27.1910   25.2510   35.4670 C.ar   20  U20         0.0870
    194  OP1       29.0190   20.8680   38.3280 O.2    20  U20        -0.5172
    195  OP2       27.2970   22.7050   38.7930 O.co2  20  U20        -0.4373
    196  P         32.7150   23.8810   36.4810 P.3    21  C21         0.2141
    197  C5'       34.0280   25.4820   34.8770 C.3    21  C21         0.1812
    198  O5'       33.2690   25.3160   36.0670 O.3    21  C21        -0.3114
    199  C4'       34.0750   26.9360   34.4830 C.3    21  C21         0.1773
    200  O4'       32.7470   27.3910   34.1150 O.3    21  C21        -0.3307
    201  C3'       34.5010   27.9190   35.5610 C.3    21  C21         0.1860
    202  O3'       35.9100   27.9700   35.6930 O.3    21  C21        -0.3112
    203  C2'       33.9560   29.2230   35.0030 C.3    21  C21         0.2309
    204  O2'       34.7420   29.7330   33.9470 O.3    21  C21        -0.2156
    205  C1'       32.6050   28.7600   34.4640 C.3    21  C21         0.2420
    206  N1        31.5320   28.8750   35.4580 N.ar   21  C21        -0.2535
    207  C2        30.9460   30.1270   35.6640 C.ar   21  C21         0.3532
    208  O2        31.3750   31.0950   35.0190 O.2    21  C21        -0.2443
    209  N3        29.9320   30.2460   36.5540 N.ar   21  C21        -0.1739
    210  C4        29.5040   29.1700   37.2220 C.ar   21  C21         0.1759
    211  N4        28.4870   29.3220   38.0770 N.pl3  21  C21        -0.1070
    212  C5        30.0980   27.8860   37.0430 C.ar   21  C21         0.0566
    213  C6        31.1010   27.7870   36.1610 C.ar   21  C21         0.0850
    214  OP1       33.8610   22.9370   36.4930 O.2    21  C21        -0.5172
    215  OP2       31.8790   24.0240   37.7030 O.co2  21  C21        -0.4373
    216  P         36.5590   28.3640   37.1040 P.3    22  G22         0.2141
    217  C5'       36.9250   30.8420   36.3120 C.3    22  G22         0.1812
    218  O5'       36.3100   29.9330   37.2250 O.3    22  G22        -0.3114
    219  C4'       36.3550   32.2360   36.4830 C.3    22  G22         0.1773
    220  O4'       34.9310   32.2420   36.1780 O.3    22  G22        -0.3307
    221  C3'       36.4090   32.8460   37.8750 C.3    22  G22         0.1860
    222  O3'       37.6850   33.3850   38.1900 O.3    22  G22        -0.3112
    223  C2'       35.3850   33.9590   37.7420 C.3    22  G22         0.2309
    224  O2'       35.8710   35.0640   37.0150 O.3    22  G22        -0.2156
    225  C1'       34.2880   33.2440   36.9540 C.3    22  G22         0.2408
    226  N1        30.3640   33.8730   40.0930 N.ar   22  G22        -0.1709
    227  C2        31.0610   34.8120   39.3700 C.ar   22  G22         0.2606
    228  N2        30.6550   36.0820   39.5070 N.pl3  22  G22        -0.0859
    229  N3        32.0810   34.5230   38.5760 N.ar   22  G22        -0.1918
    230  C4        32.3590   33.2040   38.5750 C.ar   22  G22         0.1723
    231  C5        31.7330   32.1910   39.2670 C.ar   22  G22         0.1748
    232  C6        30.6340   32.5090   40.1020 C.ar   22  G22         0.3023
    233  O6        29.9430   31.7490   40.7830 O.2    22  G22        -0.2633
    234  N7        32.3250   30.9680   38.9920 N.ar   22  G22        -0.2173
    235  C8        33.2730   31.2540   38.1470 C.ar   22  G22         0.1817
    236  N9        33.3460   32.5920   37.8530 N.ar   22  G22        -0.2693
    237  OP1       38.0170   28.1440   36.9680 O.2    22  G22        -0.5172
    238  OP2       35.8130   27.6700   38.1840 O.co2  22  G22        -0.4373
    239  P         38.1470   33.4780   39.7280 P.3    23  C23         0.2141
    240  C5'       37.0870   35.8380   40.0760 C.3    23  C23         0.1813
    241  O5'       37.0870   34.4540   40.4000 O.3    23  C23        -0.3114
    242  C4'       36.0150   36.5560   40.8500 C.3    23  C23         0.1801
    243  O4'       34.7330   35.9410   40.5760 O.3    23  C23        -0.3306
    244  C3'       36.0960   36.4880   42.3650 C.3    23  C23         0.2161
    245  O3'       37.0920   37.3270   42.9650 O.3    23  C23        -0.2175
    246  C2'       34.6830   36.8900   42.7500 C.3    23  C23         0.2338
    247  O2'       34.4870   38.2840   42.6270 O.3    23  C23        -0.2155
    248  C1'       33.8680   36.1640   41.6760 C.3    23  C23         0.2421
    249  N1        33.3480   34.8670   42.1270 N.ar   23  C23        -0.2535
    250  C2        32.2070   34.8520   42.9300 C.ar   23  C23         0.3532
    251  O2        31.6750   35.9330   43.2370 O.2    23  C23        -0.2443
    252  N3        31.7130   33.6680   43.3570 N.ar   23  C23        -0.1739
    253  C4        32.3160   32.5340   43.0140 C.ar   23  C23         0.1759
    254  N4        31.7940   31.3950   43.4680 N.pl3  23  C23        -0.1070
    255  C5        33.4830   32.5170   42.1930 C.ar   23  C23         0.0566
    256  C6        33.9610   33.6970   41.7760 C.ar   23  C23         0.0850
    257  OP1       39.4510   34.1900   39.7410 O.2    23  C23        -0.5172
    258  OP2       38.0340   32.1320   40.3460 O.co2  23  C23        -0.4373
    259  P         27.5770   32.4320   51.1260 P.3    25  U25         0.1280
    260  C5'       25.0480   31.7070   51.7250 C.3    25  U25         0.1795
    261  O5'       26.4360   31.8180   52.1250 O.3    25  U25        -0.3259
    262  C4'       24.8780   30.5980   50.7110 C.3    25  U25         0.1772
    263  O4'       25.9300   29.6290   50.8860 O.3    25  U25        -0.3307
    264  C3'       23.5950   29.7840   50.8090 C.3    25  U25         0.1860
    265  O3'       22.4940   30.4260   50.1590 O.3    25  U25        -0.3112
    266  C2'       23.9760   28.3750   50.3280 C.3    25  U25         0.2309
    267  O2'       23.4820   27.9900   49.0630 O.3    25  U25        -0.2156
    268  C1'       25.5110   28.3910   50.3610 C.3    25  U25         0.2420
    269  N1        26.0790   27.3350   51.2080 N.ar   25  U25        -0.2534
    270  C2        26.4000   26.1330   50.6100 C.ar   25  U25         0.3546
    271  O2        26.2440   25.9250   49.4160 O.2    25  U25        -0.2443
    272  N3        26.9120   25.1850   51.4620 N.ar   25  U25        -0.1530
    273  C4        27.1300   25.3180   52.8180 C.ar   25  U25         0.2846
    274  O4        27.5530   24.3550   53.4590 O.2    25  U25        -0.2650
    275  C5        26.7830   26.5970   53.3570 C.ar   25  U25         0.0814
    276  C6        26.2820   27.5380   52.5540 C.ar   25  U25         0.0870
    277  OP1       27.7580   31.4200   50.0010 O.3    25  U25        -0.1955
    278  OP2       27.0500   33.7770   50.6350 O.co2  25  U25        -0.7863
    279  P         22.4670   30.5830   48.5510 P.3    26  G26         0.2141
    280  C5'       22.4880   32.7670   47.1120 C.3    26  G26         0.1812
    281  O5'       22.2350   32.1450   48.3560 O.3    26  G26        -0.3114
    282  C4'       22.8890   34.2050   47.3240 C.3    26  G26         0.1773
    283  O4'       24.0530   34.2740   48.1890 O.3    26  G26        -0.3307
    284  C3'       23.2600   34.9240   46.0380 C.3    26  G26         0.1860
    285  O3'       22.1580   35.7010   45.6050 O.3    26  G26        -0.3112
    286  C2'       24.4780   35.7640   46.4180 C.3    26  G26         0.2309
    287  O2'       24.1690   37.0560   46.8920 O.3    26  G26        -0.2156
    288  C1'       25.1190   34.9070   47.5060 C.3    26  G26         0.2408
    289  N1        29.3020   33.8910   44.8010 N.ar   26  G26        -0.1709
    290  C2        28.7610   35.1040   45.1370 C.ar   26  G26         0.2606
    291  N2        29.4100   36.1840   44.6830 N.pl3  26  G26        -0.0859
    292  N3        27.6630   35.2490   45.8610 N.ar   26  G26        -0.1918
    293  C4        27.1360   34.0590   46.2210 C.ar   26  G26         0.1723
    294  C5        27.5980   32.7910   45.9340 C.ar   26  G26         0.1748
    295  C6        28.7810   32.6530   45.1620 C.ar   26  G26         0.3023
    296  O6        29.3530   31.6150   44.8030 O.2    26  G26        -0.2633
    297  N7        26.7670   31.8260   46.4890 N.ar   26  G26        -0.2173
    298  C8        25.8350   32.5100   47.0950 C.ar   26  G26         0.1817
    299  N9        25.9940   33.8690   46.9670 N.ar   26  G26        -0.2693
    300  OP1       21.2560   29.8960   48.0290 O.3    26  G26        -0.4373
    301  OP2       23.7970   30.2520   47.9830 O.co2  26  G26        -0.5172
    302  P         21.7230   35.6530   44.0650 P.3    27  C27         0.2141
    303  C5'       23.0170   37.8940   43.7010 C.3    27  C27         0.1812
    304  O5'       22.8310   36.5330   43.3420 O.3    27  C27        -0.3114
    305  C4'       24.2690   38.4280   43.0590 C.3    27  C27         0.1773
    306  O4'       25.4460   37.8220   43.6610 O.3    27  C27        -0.3307
    307  C3'       24.4230   38.1060   41.5870 C.3    27  C27         0.1860
    308  O3'       23.6110   38.9470   40.7810 O.3    27  C27        -0.3112
    309  C2'       25.9150   38.3260   41.4020 C.3    27  C27         0.2309
    310  O2'       26.2710   39.6910   41.4160 O.3    27  C27        -0.2156
    311  C1'       26.4530   37.6660   42.6720 C.3    27  C27         0.2420
    312  N1        26.7130   36.2300   42.4960 N.ar   27  C27        -0.2535
    313  C2        27.8190   35.8380   41.7450 C.ar   27  C27         0.3532
    314  O2        28.5620   36.7150   41.2770 O.2    27  C27        -0.2443
    315  N3        28.0530   34.5190   41.5470 N.ar   27  C27        -0.1739
    316  C4        27.2330   33.6110   42.0780 C.ar   27  C27         0.1759
    317  N4        27.4940   32.3150   41.8510 N.pl3  27  C27        -0.1070
    318  C5        26.1040   33.9840   42.8640 C.ar   27  C27         0.0566
    319  C6        25.8840   35.2910   43.0460 C.ar   27  C27         0.0850
    320  OP1       20.4180   36.3500   43.9410 O.3    27  C27        -0.4373
    321  OP2       21.8610   34.2530   43.5890 O.co2  27  C27        -0.5172
    322  P         22.8720   38.3370   39.4910 P.3    28  G28         0.2141
    323  C5'       24.5650   39.4320   37.8320 C.3    28  G28         0.1812
    324  O5'       24.0160   38.2490   38.3900 O.3    28  G28        -0.3114
    325  C4'       25.8240   39.1170   37.0710 C.3    28  G28         0.1773
    326  O4'       26.8120   38.5560   37.9780 O.3    28  G28        -0.3307
    327  C3'       25.7120   38.0730   35.9750 C.3    28  G28         0.1860
    328  O3'       25.1710   38.6140   34.7750 O.3    28  G28        -0.3112
    329  C2'       27.1700   37.6680   35.8130 C.3    28  G28         0.2309
    330  O2'       27.9520   38.5890   35.0860 O.3    28  G28        -0.2156
    331  C1'       27.6210   37.6220   37.2730 C.3    28  G28         0.2408
    332  N1        28.9740   32.7410   37.1810 N.ar   28  G28        -0.1709
    333  C2        29.5610   33.8180   36.5610 C.ar   28  G28         0.2606
    334  N2        30.6280   33.5470   35.7940 N.pl3  28  G28        -0.0859
    335  N3        29.1340   35.0650   36.6870 N.ar   28  G28        -0.1918
    336  C4        28.0610   35.1490   37.5060 C.ar   28  G28         0.1723
    337  C5        27.4130   34.1410   38.1820 C.ar   28  G28         0.1748
    338  C6        27.8710   32.8070   38.0260 C.ar   28  G28         0.3023
    339  O6        27.4090   31.7700   38.5240 O.2    28  G28        -0.2633
    340  N7        26.3590   34.6470   38.9310 N.ar   28  G28        -0.2173
    341  C8        26.3770   35.9270   38.6880 C.ar   28  G28         0.1817
    342  N9        27.3680   36.2940   37.8150 N.ar   28  G28        -0.2693
    343  OP1       21.8760   39.3330   39.0200 O.2    28  G28        -0.5172
    344  OP2       22.4340   36.9580   39.8190 O.co2  28  G28        -0.4373
    345  P         24.4970   37.6350   33.6890 P.3    29  U29         0.2141
    346  C5'       26.7100   37.6010   32.2940 C.3    29  U29         0.1812
    347  O5'       25.7340   36.8760   33.0320 O.3    29  U29        -0.3114
    348  C4'       27.7600   36.6660   31.7490 C.3    29  U29         0.1773
    349  O4'       28.4650   36.0130   32.8400 O.3    29  U29        -0.3307
    350  C3'       27.2580   35.4870   30.9370 C.3    29  U29         0.1860
    351  O3'       26.9200   35.8490   29.6120 O.3    29  U29        -0.3112
    352  C2'       28.4780   34.5850   30.9510 C.3    29  U29         0.2309
    353  O2'       29.4770   35.0030   30.0470 O.3    29  U29        -0.2156
    354  C1'       28.9340   34.7450   32.4010 C.3    29  U29         0.2420
    355  N1        28.3190   33.7030   33.2310 N.ar   29  U29        -0.2534
    356  C2        28.8670   32.4410   33.1530 C.ar   29  U29         0.3546
    357  O2        29.8470   32.1920   32.4730 O.2    29  U29        -0.2443
    358  N3        28.2280   31.4830   33.8960 N.ar   29  U29        -0.1530
    359  C4        27.1210   31.6590   34.6970 C.ar   29  U29         0.2846
    360  O4        26.6200   30.6830   35.2490 O.2    29  U29        -0.2650
    361  C5        26.6230   33.0040   34.7480 C.ar   29  U29         0.0814
    362  C6        27.2280   33.9580   34.0310 C.ar   29  U29         0.0870
    363  OP1       23.8850   38.4600   32.6170 O.2    29  U29        -0.5172
    364  OP2       23.6600   36.6700   34.4340 O.co2  29  U29        -0.4373
    365  P         25.7020   35.1050   28.8890 P.3    30  C30         0.2141
    366  C5'       27.3290   33.2930   27.9430 C.3    30  C30         0.1812
    367  O5'       26.1980   33.6000   28.7470 O.3    30  C30        -0.3114
    368  C4'       27.6430   31.8190   28.0110 C.3    30  C30         0.1773
    369  O4'       27.9810   31.4360   29.3740 O.3    30  C30        -0.3307
    370  C3'       26.5170   30.8650   27.6540 C.3    30  C30         0.1860
    371  O3'       26.3440   30.7450   26.2460 O.3    30  C30        -0.3112
    372  C2'       27.0320   29.5720   28.2620 C.3    30  C30         0.2309
    373  O2'       28.0640   29.0000   27.4880 O.3    30  C30        -0.2156
    374  C1'       27.5940   30.0840   29.5890 C.3    30  C30         0.2420
    375  N1        26.5960   30.0490   30.6700 N.ar   30  C30        -0.2535
    376  C2        26.2080   28.8070   31.1820 C.ar   30  C30         0.3532
    377  O2        26.7370   27.7740   30.7220 O.2    30  C30        -0.2443
    378  N3        25.2780   28.7580   32.1620 N.ar   30  C30        -0.1739
    379  C4        24.7510   29.8880   32.6400 C.ar   30  C30         0.1759
    380  N4        23.8340   29.7900   33.6120 N.pl3  30  C30        -0.1070
    381  C5        25.1380   31.1700   32.1440 C.ar   30  C30         0.0566
    382  C6        26.0540   31.2020   31.1670 C.ar   30  C30         0.0850
    383  OP1       25.5740   35.6490   27.5190 O.2    30  C30        -0.5172
    384  OP2       24.5520   35.1780   29.8260 O.co2  30  C30        -0.4373
    385  P         24.9070   30.3240   25.6600 P.3    31  C31         0.2141
    386  C5'       25.7330   27.8420   25.5590 C.3    31  C31         0.1812
    387  O5'       24.7790   28.7840   26.0430 O.3    31  C31        -0.3114
    388  C4'       25.3930   26.4550   26.0410 C.3    31  C31         0.1773
    389  O4'       25.4840   26.3820   27.4870 O.3    31  C31        -0.3307
    390  C3'       23.9780   25.9800   25.7640 C.3    31  C31         0.1860
    391  O3'       23.8570   25.5210   24.4280 O.3    31  C31        -0.3112
    392  C2'       23.8580   24.8180   26.7400 C.3    31  C31         0.2309
    393  O2'       24.4910   23.6490   26.2630 O.3    31  C31        -0.2156
    394  C1'       24.6140   25.3630   27.9540 C.3    31  C31         0.2420
    395  N1        23.7100   25.9360   28.9600 N.ar   31  C31        -0.2535
    396  C2        23.0350   25.0630   29.8180 C.ar   31  C31         0.3532
    397  O2        23.2080   23.8440   29.6860 O.2    31  C31        -0.2443
    398  N3        22.2140   25.5660   30.7630 N.ar   31  C31        -0.1739
    399  C4        22.0470   26.8840   30.8660 C.ar   31  C31         0.1759
    400  N4        21.2320   27.3310   31.8210 N.pl3  31  C31        -0.1070
    401  C5        22.7130   27.8010   29.9960 C.ar   31  C31         0.0566
    402  C6        23.5280   27.2870   29.0660 C.ar   31  C31         0.0850
    403  OP1       24.9720   30.3960   24.1770 O.2    31  C31        -0.5172
    404  OP2       23.8600   31.0890   26.3880 O.co2  31  C31        -0.4373
    405  P         22.5230   25.8390   23.5960 P.3    32  C32         0.2141
    406  C5'       21.3830   23.5670   24.2200 C.3    32  C32         0.1812
    407  O5'       21.3990   24.9870   24.3330 O.3    32  C32        -0.3114
    408  C4'       20.1650   22.9960   24.9070 C.3    32  C32         0.1773
    409  O4'       20.2900   23.1290   26.3490 O.3    32  C32        -0.3307
    410  C3'       18.8390   23.6690   24.5930 C.3    32  C32         0.1860
    411  O3'       18.2920   23.2360   23.3550 O.3    32  C32        -0.3112
    412  C2'       17.9980   23.2320   25.7780 C.3    32  C32         0.2309
    413  O2'       17.5800   21.8870   25.6680 O.3    32  C32        -0.2156
    414  C1'       19.0110   23.3760   26.9140 C.3    32  C32         0.2420
    415  N1        19.0160   24.7260   27.4990 N.ar   32  C32        -0.2535
    416  C2        18.0000   25.0750   28.3940 C.ar   32  C32         0.3532
    417  O2        17.1370   24.2340   28.6760 O.2    32  C32        -0.2443
    418  N3        17.9840   26.3140   28.9300 N.ar   32  C32        -0.1739
    419  C4        18.9370   27.1890   28.6110 C.ar   32  C32         0.1759
    420  N4        18.8820   28.4040   29.1720 N.pl3  32  C32        -0.1070
    421  C5        19.9900   26.8610   27.7050 C.ar   32  C32         0.0566
    422  C6        19.9900   25.6300   27.1760 C.ar   32  C32         0.0850
    423  OP1       22.7280   25.2550   22.2470 O.2    32  C32        -0.5172
    424  OP2       22.2050   27.2870   23.7320 O.co2  32  C32        -0.4373
    425  P         17.4430   24.2700   22.4660 P.3    33  G33         0.2141
    426  C5'       15.2530   23.2870   23.5170 C.3    33  G33         0.1812
    427  O5'       16.0680   24.4270   23.2560 O.3    33  G33        -0.3114
    428  C4'       14.2150   23.6050   24.5660 C.3    33  G33         0.1773
    429  O4'       14.8740   24.0860   25.7690 O.3    33  G33        -0.3307
    430  C3'       13.2470   24.7280   24.2430 C.3    33  G33         0.1860
    431  O3'       12.2010   24.2890   23.3890 O.3    33  G33        -0.3112
    432  C2'       12.7270   25.0820   25.6300 C.3    33  G33         0.2309
    433  O2'       11.7770   24.1600   26.1160 O.3    33  G33        -0.2156
    434  C1'       14.0050   24.9710   26.4580 C.3    33  G33         0.2408
    435  N1        13.9750   29.3810   28.9600 N.ar   33  G33        -0.1709
    436  C2        13.0770   28.3390   29.0000 C.ar   33  G33         0.2606
    437  N2        12.0310   28.4830   29.8240 N.pl3  33  G33        -0.0859
    438  N3        13.1940   27.2380   28.2810 N.ar   33  G33        -0.1918
    439  C4        14.2870   27.2580   27.4920 C.ar   33  G33         0.1723
    440  C5        15.2400   28.2440   27.3650 C.ar   33  G33         0.1748
    441  C6        15.1150   29.4230   28.1600 C.ar   33  G33         0.3023
    442  O6        15.8720   30.4090   28.2120 O.2    33  G33        -0.2633
    443  N7        16.2080   27.8770   26.4360 N.ar   33  G33        -0.2173
    444  C8        15.8340   26.6910   26.0310 C.ar   33  G33         0.1817
    445  N9        14.6830   26.2530   26.6420 N.ar   33  G33        -0.2693
    446  OP1       17.1550   23.5960   21.1790 O.2    33  G33        -0.5172
    447  OP2       18.1390   25.5810   22.4720 O.co2  33  G33        -0.4373
    448  P         11.3410   25.3710   22.5650 P.3    34  5BU34       0.2141
    449  C5'        9.3980   25.4430   24.3170 C.3    34  5BU34       0.1812
    450  O5'       10.4750   26.1120   23.6770 O.3    34  5BU34      -0.3114
    451  C4'        8.6980   26.3700   25.2820 C.3    34  5BU34       0.1773
    452  O4'        9.6010   26.7700   26.3500 O.3    34  5BU34      -0.3307
    453  C3'        8.1990   27.6940   24.7320 C.3    34  5BU34       0.1860
    454  O3'        6.9810   27.5120   24.0180 O.3    34  5BU34      -0.3112
    455  C2'        7.9920   28.4730   26.0240 C.3    34  5BU34       0.2309
    456  O2'        6.8620   28.0380   26.7500 O.3    34  5BU34      -0.2156
    457  C1'        9.2420   28.0680   26.8050 C.3    34  5BU34       0.2420
    458  N1        10.3740   28.9670   26.5570 N.ar   34  5BU34      -0.2529
    459  C2        10.3840   30.1870   27.2010 C.ar   34  5BU34       0.3546
    460  O2         9.5010   30.5410   27.9560 O.2    34  5BU34      -0.2443
    461  N3        11.4730   30.9740   26.9280 N.ar   34  5BU34      -0.1526
    462  C4        12.5260   30.6650   26.0990 C.ar   34  5BU34       0.2907
    463  O4        13.4710   31.4430   26.0120 O.2    34  5BU34      -0.2645
    464  C5        12.4320   29.3870   25.4660 C.ar   34  5BU34       0.1098
    465  C6        11.3870   28.6040   25.7120 C.ar   34  5BU34       0.0935
    466  OP1       10.4110   24.6030   21.7070 O.co2  34  5BU34      -0.5172
    467  OP2       12.2600   26.3650   21.9480 O.3    34  5BU34      -0.4373
    468 BR         13.7300   28.8620   24.1470 Br     34  5BU34      -0.0424
    469  P          6.6570   28.4310   22.7360 P.3    35  C35         0.2141
    470  C5'        5.0940   29.8920   24.2420 C.3    35  C35         0.1812
    471  O5'        6.2220   29.8210   23.3780 O.3    35  C35        -0.3114
    472  C4'        5.0610   31.2200   24.9540 C.3    35  C35         0.1773
    473  O4'        6.2250   31.3320   25.8160 O.3    35  C35        -0.3307
    474  C3'        5.1660   32.4590   24.0810 C.3    35  C35         0.1860
    475  O3'        3.9330   32.8070   23.4570 O.3    35  C35        -0.3112
    476  C2'        5.5910   33.4960   25.1050 C.3    35  C35         0.2309
    477  O2'        4.5260   33.8580   25.9560 O.3    35  C35        -0.2156
    478  C1'        6.6070   32.6930   25.9160 C.3    35  C35         0.2420
    479  N1         7.9870   32.8380   25.4240 N.ar   35  C35        -0.2535
    480  C2         8.7190   33.9570   25.8280 C.ar   35  C35         0.3532
    481  O2         8.1700   34.7950   26.5720 O.2    35  C35        -0.2443
    482  N3        10.0000   34.1050   25.4020 N.ar   35  C35        -0.1739
    483  C4        10.5400   33.1930   24.5940 C.ar   35  C35         0.1759
    484  N4        11.7980   33.3870   24.1920 N.pl3  35  C35        -0.1070
    485  C5         9.8120   32.0420   24.1610 C.ar   35  C35         0.0566
    486  C6         8.5500   31.9070   24.5960 C.ar   35  C35         0.0850
    487  OP1        5.4820   27.8200   22.0730 O.3    35  C35        -0.4373
    488  OP2        7.9030   28.6480   21.9580 O.co2  35  C35        -0.5172
    489  P          3.9580   33.6040   22.0600 P.3    36  G36         0.2141
    490  C5'        3.7430   35.8930   23.3410 C.3    36  G36         0.1813
    491  O5'        4.4860   35.0590   22.4530 O.3    36  G36        -0.3114
    492  C4'        4.5300   37.1390   23.6900 C.3    36  G36         0.1801
    493  O4'        5.7100   36.8040   24.4720 O.3    36  G36        -0.3306
    494  C3'        5.0870   37.9740   22.5460 C.3    36  G36         0.2161
    495  O3'        4.0790   38.8070   21.9870 O.3    36  G36        -0.2175
    496  C2'        6.1290   38.8070   23.2780 C.3    36  G36         0.2337
    497  O2'        5.5480   39.8410   24.0430 O.3    36  G36        -0.2155
    498  C1'        6.7280   37.7660   24.2230 C.3    36  G36         0.2409
    499  N1        11.6570   38.0830   23.0800 N.ar   36  G36        -0.1709
    500  C2        10.8620   38.9760   23.7480 C.ar   36  G36         0.2606
    501  N2        11.4540   40.1180   24.1370 N.pl3  36  G36        -0.0859
    502  N3         9.5820   38.7710   24.0120 N.ar   36  G36        -0.1918
    503  C4         9.1530   37.5850   23.5300 C.ar   36  G36         0.1723
    504  C5         9.8680   36.6250   22.8460 C.ar   36  G36         0.1748
    505  C6        11.2390   36.8590   22.5810 C.ar   36  G36         0.3023
    506  O6        12.0400   36.1350   21.9870 O.2    36  G36        -0.2633
    507  N7         9.0590   35.5420   22.5220 N.ar   36  G36        -0.2173
    508  C8         7.8850   35.8600   23.0020 C.ar   36  G36         0.1817
    509  N9         7.8700   37.0920   23.6170 N.ar   36  G36        -0.2693
    510  OP1        2.5660   33.7180   21.5620 O.3    36  G36        -0.4373
    511  OP2        4.9920   32.9750   21.2100 O.co2  36  G36        -0.5172
@<TRIPOS>BOND
     1   431   448    1
     2   448   450    1
     3   448   466    2
     4   448   467    1
     5   449   451    1
     6   449   450    1
     7   451   452    1
     8   451   453    1
     9   452   457    1
    10   453   454    1
    11   453   455    1
    12   454   469    1
    13   455   456    1
    14   455   457    1
    15   457   458    1
    16   458   459   ar
    17   458   465   ar
    18   459   460    2
    19   459   461   ar
    20   461   462   ar
    21   462   463    2
    22   462   464   ar
    23   464   465   ar
    24   464   468    1
    25   446   425    2
    26   511   489    2
    27   510   489    1
    28   488   469    2
    29   495   494    1
    30   506   505    2
    31   489   491    1
    32   489   475    1
    33   487   469    1
    34    16    15    1
    35   423   405    2
    36    17    15   ar
    37    17    18   ar
    38    15    14   ar
    39   491   490    1
    40   425   447    1
    41   425   427    1
    42   425   411    1
    43    20     1    1
    44   507   504   ar
    45   507   508   ar
    46   494   496    1
    47   494   492    1
    48   505   504   ar
    49   505   499   ar
    50    18    11   ar
    51   469   471    1
    52    14    12   ar
    53     1     3    1
    54     1    19    1
    55   504   503   ar
    56     5    10    1
    57     5     4    1
    58   508   509   ar
    59    11    12   ar
    60    11    10    1
    61    12    13    2
    62   499   500   ar
    63   427   426    1
    64   496   497    1
    65   496   498    1
    66   490   492    1
    67   411   410    1
    68   471   470    1
    69   431   430    1
    70    10     8    1
    71   475   474    1
    72   426   428    1
    73     3     2    1
    74   503   509   ar
    75   503   502   ar
    76   405   424    1
    77   405   407    1
    78   405   391    1
    79   509   498    1
    80   492   493    1
    81   500   502   ar
    82   500   501    1
    83     2     4    1
    84   474   472    1
    85   474   476    1
    86     4     6    1
    87   485   483   ar
    88   485   486   ar
    89   403   385    2
    90   484   483    1
    91   406   407    1
    92   406   408    1
    93   498   493    1
    94   470   472    1
    95   430   428    1
    96   430   432    1
    97   391   390    1
    98   428   429    1
    99   410   408    1
   100   410   412    1
   101   483   482   ar
   102   486   479   ar
   103   408   409    1
   104   472   473    1
   105     8     6    1
   106     8     9    1
   107   476   478    1
   108   476   477    1
   109     6     7    1
   110    38    37    2
   111   482   480   ar
   112   479   480   ar
   113   479   478    1
   114   386   388    1
   115   386   387    1
   116   432   433    1
   117   432   434    1
   118   385   387    1
   119   385   371    1
   120   385   404    1
   121   413   412    1
   122   390   388    1
   123   390   392    1
   124   429   434    1
   125   412   414    1
   126   473   478    1
   127   480   481    2
   128    37    31   ar
   129    37    36   ar
   130   444   443   ar
   131   444   445   ar
   132   388   389    1
   133    31    32   ar
   134   371   370    1
   135    39    36   ar
   136    39    40   ar
   137   393   392    1
   138    36    35   ar
   139   409   414    1
   140   443   440   ar
   141   434   445    1
   142     7    21    1
   143   445   439   ar
   144   392   394    1
   145    40    41   ar
   146    32    33    1
   147    32    34   ar
   148   414   415    1
   149    35    41   ar
   150    35    34   ar
   151   422   415   ar
   152   422   421   ar
   153    41    30    1
   154   440   439   ar
   155   440   441   ar
   156   389   394    1
   157   373   372    1
   158   439   438   ar
   159   415   416   ar
   160   383   365    2
   161    25    30    1
   162    25    24    1
   163   370   368    1
   164   370   372    1
   165    43    21    2
   166   421   419   ar
   167    60    59    1
   168    30    28    1
   169    21    23    1
   170    21    42    1
   171   366   368    1
   172   366   367    1
   173   394   395    1
   174   368   369    1
   175   441   442    2
   176   441   435   ar
   177   372   374    1
   178   438   436   ar
   179    23    22    1
   180    54    59   ar
   181    54    55   ar
   182   416   417    2
   183   416   418   ar
   184    59    58   ar
   185   419   418   ar
   186   419   420    1
   187    22    24    1
   188   367   365    1
   189    24    26    1
   190   365   351    1
   191   365   384    1
   192    55    56   ar
   193   395   402   ar
   194   395   396   ar
   195   435   436   ar
   196   436   437    1
   197   402   401   ar
   198    58    61   ar
   199    58    57   ar
   200   369   374    1
   201    28    26    1
   202    28    29    1
   203    61    62   ar
   204   374   375    1
   205    56    57   ar
   206   351   350    1
   207   397   396    2
   208    57    63   ar
   209   396   398   ar
   210    26    27    1
   211   401   399   ar
   212   353   352    1
   213    98    97    1
   214    62    63   ar
   215    63    53    1
   216    81    80    1
   217    96    97   ar
   218    96   102   ar
   219    79    80   ar
   220    79    77   ar
   221   375   382   ar
   222   375   376   ar
   223   377   376    2
   224   398   399   ar
   225    97    99   ar
   226    78    77    2
   227   399   400    1
   228   350   352    1
   229   350   348    1
   230   352   354    1
   231    80    82   ar
   232    53    48    1
   233    53    51    1
   234    77    76   ar
   235   103   102    2
   236   382   381   ar
   237   376   378   ar
   238    27    44    1
   239    48    47    1
   240   102   101   ar
   241    99   100   ar
   242    65    44    2
   243   165   164    1
   244   348   346    1
   245   348   349    1
   246    82    83   ar
   247    76    83   ar
   248    76    75    1
   249   381   379   ar
   250   378   379   ar
   251   101   100   ar
   252   101   104   ar
   253   100   106   ar
   254    44    46    1
   255    44    64    1
   256   346   347    1
   257   354   349    1
   258   354   355    1
   259   357   356    2
   260    46    45    1
   261    51    52    1
   262    51    49    1
   263    75    70    1
   264    75    73    1
   265   363   345    2
   266   379   380    1
   267   164   163   ar
   268   164   166   ar
   269    47    45    1
   270    47    49    1
   271   184   183    1
   272   104   105   ar
   273   347   345    1
   274   163   169   ar
   275    70    69    1
   276   106    95    1
   277   106   105   ar
   278   166   167   ar
   279   356   355   ar
   280   356   358   ar
   281   355   362   ar
   282    49    50    1
   283    95    90    1
   284    95    93    1
   285   188   187    2
   286   345   364    1
   287   345   328    1
   288   185   180    1
   289   185   183    1
   290   185   186    1
   291    73    74    1
   292    73    71    1
   293   180   179    1
   294    90    89    1
   295   358   359   ar
   296   204   203    1
   297   169   170    2
   298   169   168   ar
   299   362   361   ar
   300   167   168   ar
   301   167   173   ar
   302   183   181    1
   303   200   205    1
   304   200   199    1
   305   187   186   ar
   306   187   189   ar
   307   205   203    1
   308   205   206    1
   309   199   197    1
   310   199   201    1
   311   179   181    1
   312   179   177    1
   313    69    71    1
   314    69    67    1
   315   168   171   ar
   316   186   193   ar
   317    94    93    1
   318   161   160    1
   319    93    91    1
   320   359   361   ar
   321   359   360    2
   322    50    66    1
   323   162   173    1
   324   162   160    1
   325   162   157    1
   326   173   172   ar
   327   328   327    1
   328   197   198    1
   329    71    72    1
   330   203   201    1
   331   208   207    2
   332   330   329    1
   333   181   182    1
   334   189   190   ar
   335   160   158    1
   336    68    67    1
   337    68    66    1
   338    85    66    2
   339   182   196    1
   340    89    91    1
   341    89    87    1
   342   147   146    1
   343   177   178    1
   344   206   207   ar
   345   206   213   ar
   346   171   172   ar
   347   193   192   ar
   348   201   202    1
   349    66    84    1
   350   207   209   ar
   351   157   156    1
   352   202   216    1
   353   334   333    1
   354   329   327    1
   355   329   331    1
   356    91    92    1
   357    87    88    1
   358   327   325    1
   359   198   196    1
   360   190   192   ar
   361   190   191    2
   362    72    86    1
   363   213   212   ar
   364   220   219    1
   365   220   225    1
   366    88    86    1
   367   217   219    1
   368   217   218    1
   369   196   214    2
   370   196   215    1
   371   219   221    1
   372   148   145   ar
   373   148   149   ar
   374   209   210   ar
   375   333   335   ar
   376   333   332   ar
   377   146   145   ar
   378   146   141   ar
   379   178   176    1
   380   158   156    1
   381   158   159    1
   382   335   336   ar
   383   152   131    2
   384   156   154    1
   385   225   223    1
   386   225   236    1
   387    92   109    1
   388   237   216    2
   389   108    86    2
   390   224   223    1
   391    86   107    1
   392   212   210   ar
   393   145   144   ar
   394   325   323    1
   395   325   326    1
   396   216   218    1
   397   216   238    1
   398   332   338   ar
   399   210   211    1
   400   159   176    1
   401   110   111    1
   402   110   112    1
   403   331   342    1
   404   331   326    1
   405   111   109    1
   406   141   142   ar
   407   149   150   ar
   408   336   342   ar
   409   336   337   ar
   410   126   127   ar
   411   126   123   ar
   412   127   128   ar
   413   223   221    1
   414   342   341   ar
   415   323   324    1
   416   176   194    2
   417   176   195    1
   418   236   235   ar
   419   236   230   ar
   420   221   222    1
   421   130   109    2
   422   109   129    1
   423   338   337   ar
   424   338   339    2
   425   154   155    1
   426   235   234   ar
   427   131   151    1
   428   131   133    1
   429   131   115    1
   430   155   153    1
   431   337   340   ar
   432   222   239    1
   433   144   150   ar
   434   144   143   ar
   435   324   322    1
   436   125   124    1
   437   112   114    1
   438   112   113    1
   439   230   229   ar
   440   230   231   ar
   441   229   227   ar
   442   150   140    1
   443   142   143   ar
   444   114   115    1
   445   114   116    1
   446   341   340   ar
   447   133   132    1
   448   113   118    1
   449   123   124   ar
   450   123   122   ar
   451   234   231   ar
   452   343   322    2
   453   128   118    1
   454   128   122   ar
   455   175   153    2
   456   231   232   ar
   457   124   119   ar
   458   227   228    1
   459   227   226   ar
   460   322   344    1
   461   322   308    1
   462   153   137    1
   463   153   174    1
   464   138   136    1
   465   138   140    1
   466   138   139    1
   467   136   137    1
   468   136   134    1
   469   118   116    1
   470   122   121   ar
   471   239   257    2
   472   239   258    1
   473   239   241    1
   474   116   117    1
   475   140   135    1
   476   240   241    1
   477   240   242    1
   478   226   232   ar
   479   232   233    2
   480   132   134    1
   481   135   134    1
   482   119   120   ar
   483   243   242    1
   484   243   248    1
   485   308   307    1
   486   242   244    1
   487   121   120   ar
   488   314   313    2
   489   309   310    1
   490   309   307    1
   491   309   311    1
   492   315   313   ar
   493   315   316   ar
   494   307   305    1
   495   248   249    1
   496   248   246    1
   497   313   312   ar
   498   256   249   ar
   499   256   255   ar
   500   317   316    1
   501   316   318   ar
   502   249   250   ar
   503   255   253   ar
   504   244   246    1
   505   244   245    1
   506   312   311    1
   507   312   319   ar
   508   247   246    1
   509   311   306    1
   510   318   319   ar
   511   250   251    2
   512   250   252   ar
   513   253   252   ar
   514   253   254    1
   515   305   306    1
   516   305   303    1
   517   304   303    1
   518   304   302    1
   519   321   302    2
   520   320   302    1
   521   302   285    1
   522   291   290    1
   523   289   290   ar
   524   289   295   ar
   525   296   295    2
   526   290   292   ar
   527   295   294   ar
   528   285   284    1
   529   292   293   ar
   530   294   293   ar
   531   294   297   ar
   532   284   286    1
   533   284   282    1
   534   293   299   ar
   535   286   287    1
   536   286   288    1
   537   297   298   ar
   538   299   298   ar
   539   299   288    1
   540   280   282    1
   541   280   281    1
   542   282   283    1
   543   288   283    1
   544   301   279    2
   545   300   279    1
   546   281   279    1
   547   279   265    1
   548   267   266    1
   549   271   270    2
   550   277   259    1
   551   265   264    1
   552   266   268    1
   553   266   264    1
   554   268   263    1
   555   268   269    1
   556   270   269   ar
   557   270   272   ar
   558   278   259    1
   559   262   264    1
   560   262   263    1
   561   262   260    1
   562   259   261    1
   563   269   276   ar
   564   272   273   ar
   565   260   261    1
   566   276   275   ar
   567   273   275   ar
   568   273   274    2
