lig.pdb
 OpenBabel03051820513D

 22 23  0  0  1  0  0  0  0  0999 V2000
   17.1850   -8.8770   25.7330 C   0  0  1  0  0  0  0  0  0  0  0  0
   19.1100   -7.9750   27.0480 C   0  0  1  0  0  0  0  0  0  0  0  0
   18.5330   -6.4840   27.4130 C   0  0  1  0  0  0  0  0  0  0  0  0
   19.7980   -5.5410   27.7380 C   0  0  2  0  0  0  0  0  0  0  0  0
   15.6270   -8.9690   26.0620 C   0  0  1  0  0  0  0  0  0  0  0  0
   15.2520  -10.4170   26.5660 C   0  0  2  0  0  0  0  0  0  0  0  0
   15.5760  -11.4620   25.3890 C   0  0  1  0  0  0  0  0  0  0  0  0
   17.1630  -11.4610   25.0630 C   0  0  1  0  0  0  0  0  0  0  0  0
   17.5720  -12.4540   23.9400 C   0  0  0  0  0  0  0  0  0  0  0  0
   20.5330   -6.1450   29.0330 C   0  0  1  0  0  0  0  0  0  0  0  0
   21.0720   -7.6130   28.6420 C   0  0  0  0  0  0  0  0  0  0  0  0
   19.8630   -8.5700   28.2620 C   0  0  2  0  0  0  0  0  0  0  0  0
   15.2340  -12.8360   25.7720 F   0  0  0  0  0  0  0  0  0  0  0  0
   15.3600   -7.8800   27.1120 N   0  0  0  0  0  0  0  0  0  0  0  0
   18.9210  -12.3410   23.5210 N   0  0  0  0  0  0  0  0  0  0  0  0
   21.7320   -5.3200   29.3840 N   0  0  0  0  0  0  0  0  0  0  0  0
   20.3390   -9.8990   27.8900 N   0  0  0  0  0  0  0  0  0  0  0  0
   18.0820   -8.8990   26.7710 O   0  0  0  0  0  0  0  0  0  0  0  0
   17.8250   -5.9520   26.2080 O   0  0  0  0  0  0  0  0  0  0  0  0
   19.3180   -4.2770   28.0500 O   0  0  0  0  0  0  0  0  0  0  0  0
   14.0960  -10.4290   26.7870 O   0  0  0  0  0  0  0  0  0  0  0  0
   17.5470   -9.9810   24.6880 O   0  0  0  0  0  0  0  0  0  0  0  0
  1  5  1  0  0  0  0
  1 18  1  1  0  0  0
  2 18  1  1  0  0  0
  2  3  1  0  0  0  0
  2 12  1  0  0  0  0
  3 19  1  6  0  0  0
  3  4  1  0  0  0  0
  4 20  1  1  0  0  0
  4 10  1  0  0  0  0
  5  6  1  0  0  0  0
  5 14  1  1  0  0  0
  6 21  1  6  0  0  0
  7 13  1  1  0  0  0
  7  6  1  0  0  0  0
  8  9  1  6  0  0  0
  8  7  1  0  0  0  0
 10 16  1  6  0  0  0
 11 10  1  0  0  0  0
 12 17  1  6  0  0  0
 12 11  1  0  0  0  0
 15  9  1  0  0  0  0
 22  8  1  0  0  0  0
 22  1  1  0  0  0  0
M  END
$$$$
