lig.pdb
 OpenBabel11021811523D
libRbt.so/2013.1/901 2013/11/27
 22 23  0  0  0  0  0  0  0  0999 V2000
   16.9829   -9.1273   25.5125 C   0  0  1  0  0  0  0  0  0  0  0  0
   19.0017   -8.4637   26.8289 C   0  0  1  0  0  0  0  0  0  0  0  0
   18.6789   -6.9333   27.3218 C   0  0  1  0  0  0  0  0  0  0  0  0
   20.0894   -6.2036   27.5922 C   0  0  2  0  0  0  0  0  0  0  0  0
   15.4187   -9.3284   25.7507 C   0  0  1  0  0  0  0  0  0  0  0  0
   15.0993  -10.8369   26.0879 C   0  0  2  0  0  0  0  0  0  0  0  0
   15.5326  -11.7390   24.8306 C   0  0  1  0  0  0  0  0  0  0  0  0
   17.1306  -11.6272   24.5878 C   0  0  1  0  0  0  0  0  0  0  0  0
   17.6434  -12.4790   23.3937 C   0  0  0  0  0  0  0  0  0  0  0  0
   20.8213   -6.9907   28.7868 C   0  0  1  0  0  0  0  0  0  0  0  0
   21.1080   -8.4912   28.2724 C   0  0  0  0  0  0  0  0  0  0  0  0
   19.7466   -9.2391   27.9418 C   0  0  2  0  0  0  0  0  0  0  0  0
   15.2478  -13.1600   25.0567 F   0  0  0  0  0  0  0  0  0  0  0  0
   15.0457   -8.3668   26.8891 N   0  0  0  0  0  0  0  0  0  0  0  0
   19.0502  -12.4621   23.2236 N   0  0  0  0  0  0  0  0  0  0  0  0
   22.1512   -6.3699   29.0821 N   0  0  0  0  0  0  0  0  0  0  0  0
   19.9931  -10.5946   27.4592 N   0  0  0  0  0  0  0  0  0  0  0  0
   17.8313   -9.2115   26.5876 O   0  0  0  0  0  0  0  0  0  0  0  0
   17.9697   -6.2271   26.2106 O   0  0  0  0  0  0  0  0  0  0  0  0
   19.8250   -4.9077   28.0119 O   0  0  0  0  0  0  0  0  0  0  0  0
   13.9367  -10.9279   26.2473 O   0  0  0  0  0  0  0  0  0  0  0  0
   17.4513  -10.0997   24.3824 O   0  0  0  0  0  0  0  0  0  0  0  0
  1  5  1  0  0  0  0
  1 18  1  1  0  0  0
  2 18  1  1  0  0  0
  2  3  1  0  0  0  0
  2 12  1  0  0  0  0
  3 19  1  6  0  0  0
  3  4  1  0  0  0  0
  4 20  1  1  0  0  0
  4 10  1  0  0  0  0
  5  6  1  0  0  0  0
  5 14  1  1  0  0  0
  6 21  1  6  0  0  0
  7 13  1  1  0  0  0
  7  6  1  0  0  0  0
  8  9  1  6  0  0  0
  8  7  1  0  0  0  0
 10 16  1  6  0  0  0
 11 10  1  0  0  0  0
 12 17  1  6  0  0  0
 12 11  1  0  0  0  0
 15  9  1  0  0  0  0
 22  8  1  0  0  0  0
 22  1  1  0  0  0  0
M  END
>  <CHROM.1>
-144.03872708,75.77417080,-176.00296143,17.93111949,-9.30059917,26.33785270
2.20923473,0.10391858,-2.64629748

>  <Name>
lig.pdb

>  <RI>
0

>  <Rbt.Current_Directory>
/home/itssahil/PROJECTS/Mol_Feturizer/New_Systems/rnas/5bxk

>  <Rbt.Executable>
rbdock ($Id: //depot/dev/client3/rdock/2013.1/src/exe/rbdock.cxx#4 $)

>  <Rbt.Library>
libRbt.so (2013.1, Build901 2013/11/27)

>  <Rbt.Parameter_File>
/export/apps/rDock/src/rDock_2013.1_src/data/scripts/dock_solv.prm

>  <Rbt.Receptor>
prm/pocket_docking_3.prm

>  <SCORE>
-7.19926

>  <SCORE.INTER>
-6.27927

>  <SCORE.INTER.CONST>
1

>  <SCORE.INTER.POLAR>
0

>  <SCORE.INTER.ROT>
3

>  <SCORE.INTER.SOLV>
22.1702

>  <SCORE.INTER.VDW>
-17.1762

>  <SCORE.INTER.norm>
-0.285422

>  <SCORE.INTRA>
-0.919987

>  <SCORE.INTRA.DIHEDRAL>
-1.2971

>  <SCORE.INTRA.DIHEDRAL.0>
7.18044

>  <SCORE.INTRA.POLAR>
0

>  <SCORE.INTRA.POLAR.0>
0

>  <SCORE.INTRA.REPUL>
0

>  <SCORE.INTRA.REPUL.0>
0

>  <SCORE.INTRA.SOLV>
-0.484019

>  <SCORE.INTRA.SOLV.lig_0>
-72.0615

>  <SCORE.INTRA.VDW>
-0.0294264

>  <SCORE.INTRA.VDW.0>
-1.54792

>  <SCORE.INTRA.norm>
-0.0418176

>  <SCORE.RESTR>
0

>  <SCORE.RESTR.CAVITY>
0

>  <SCORE.RESTR.norm>
0

>  <SCORE.SYSTEM>
0

>  <SCORE.SYSTEM.CONST>
0

>  <SCORE.SYSTEM.DIHEDRAL>
0

>  <SCORE.SYSTEM.SOLV>
0

>  <SCORE.SYSTEM.norm>
0

>  <SCORE.heavy>
22

>  <SCORE.norm>
-0.327239

>  <RMSD>
0.678

$$$$
lig.pdb
 OpenBabel11021811523D
libRbt.so/2013.1/901 2013/11/27
 22 23  0  0  0  0  0  0  0  0999 V2000
   17.2102   -8.9196   25.4740 C   0  0  1  0  0  0  0  0  0  0  0  0
   19.1962   -8.3253   26.8709 C   0  0  1  0  0  0  0  0  0  0  0  0
   19.0006   -6.7835   27.3941 C   0  0  1  0  0  0  0  0  0  0  0  0
   20.4664   -6.1781   27.6769 C   0  0  2  0  0  0  0  0  0  0  0  0
   15.6318   -9.1171   25.5900 C   0  0  1  0  0  0  0  0  0  0  0  0
   15.2859  -10.6155   25.9456 C   0  0  2  0  0  0  0  0  0  0  0  0
   15.8201  -11.5541   24.7557 C   0  0  1  0  0  0  0  0  0  0  0  0
   17.4325  -11.4459   24.6405 C   0  0  1  0  0  0  0  0  0  0  0  0
   18.0408  -12.3321   23.5184 C   0  0  0  0  0  0  0  0  0  0  0  0
   21.1306   -7.0461   28.8547 C   0  0  1  0  0  0  0  0  0  0  0  0
   21.2928   -8.5548   28.3107 C   0  0  0  0  0  0  0  0  0  0  0  0
   19.8744   -9.1812   27.9674 C   0  0  2  0  0  0  0  0  0  0  0  0
   15.5176  -12.9683   25.0007 F   0  0  0  0  0  0  0  0  0  0  0  0
   15.1674   -8.1225   26.6646 N   0  0  0  0  0  0  0  0  0  0  0  0
   19.4574  -12.3624   23.4993 N   0  0  0  0  0  0  0  0  0  0  0  0
   22.5071   -6.5430   29.1603 N   0  0  0  0  0  0  0  0  0  0  0  0
   20.0084  -10.5427   27.4579 N   0  0  0  0  0  0  0  0  0  0  0  0
   17.9682   -8.9693   26.6166 O   0  0  0  0  0  0  0  0  0  0  0  0
   18.3523   -5.9996   26.2980 O   0  0  0  0  0  0  0  0  0  0  0  0
   20.3096   -4.8733   28.1222 O   0  0  0  0  0  0  0  0  0  0  0  0
   14.1141  -10.7044   26.0125 O   0  0  0  0  0  0  0  0  0  0  0  0
   17.7690   -9.9245   24.4157 O   0  0  0  0  0  0  0  0  0  0  0  0
  1  5  1  0  0  0  0
  1 18  1  1  0  0  0
  2 18  1  1  0  0  0
  2  3  1  0  0  0  0
  2 12  1  0  0  0  0
  3 19  1  6  0  0  0
  3  4  1  0  0  0  0
  4 20  1  1  0  0  0
  4 10  1  0  0  0  0
  5  6  1  0  0  0  0
  5 14  1  1  0  0  0
  6 21  1  6  0  0  0
  7 13  1  1  0  0  0
  7  6  1  0  0  0  0
  8  9  1  6  0  0  0
  8  7  1  0  0  0  0
 10 16  1  6  0  0  0
 11 10  1  0  0  0  0
 12 17  1  6  0  0  0
 12 11  1  0  0  0  0
 15  9  1  0  0  0  0
 22  8  1  0  0  0  0
 22  1  1  0  0  0  0
M  END
>  <CHROM.1>
-151.85038010,84.50159469,-173.42005077,18.19620373,-9.17419118,26.34580615
2.23848905,0.17007567,-2.67548490

>  <Name>
lig.pdb

>  <RI>
0

>  <Rbt.Current_Directory>
/home/itssahil/PROJECTS/Mol_Feturizer/New_Systems/rnas/5bxk

>  <Rbt.Executable>
rbdock ($Id: //depot/dev/client3/rdock/2013.1/src/exe/rbdock.cxx#4 $)

>  <Rbt.Library>
libRbt.so (2013.1, Build901 2013/11/27)

>  <Rbt.Parameter_File>
/export/apps/rDock/src/rDock_2013.1_src/data/scripts/dock_solv.prm

>  <Rbt.Receptor>
prm/pocket_docking_2.prm

>  <SCORE>
-7.3409

>  <SCORE.INTER>
-6.38008

>  <SCORE.INTER.CONST>
1

>  <SCORE.INTER.POLAR>
0

>  <SCORE.INTER.ROT>
3

>  <SCORE.INTER.SOLV>
22.7724

>  <SCORE.INTER.VDW>
-17.4442

>  <SCORE.INTER.norm>
-0.290004

>  <SCORE.INTRA>
-0.96082

>  <SCORE.INTRA.DIHEDRAL>
-1.18044

>  <SCORE.INTRA.DIHEDRAL.0>
7.18044

>  <SCORE.INTRA.POLAR>
0

>  <SCORE.INTRA.POLAR.0>
0

>  <SCORE.INTRA.REPUL>
0

>  <SCORE.INTRA.REPUL.0>
0

>  <SCORE.INTRA.SOLV>
-0.472845

>  <SCORE.INTRA.SOLV.lig_0>
-72.0615

>  <SCORE.INTRA.VDW>
-0.134178

>  <SCORE.INTRA.VDW.0>
-1.54792

>  <SCORE.INTRA.norm>
-0.0436736

>  <SCORE.RESTR>
0

>  <SCORE.RESTR.CAVITY>
0

>  <SCORE.RESTR.norm>
0

>  <SCORE.SYSTEM>
0

>  <SCORE.SYSTEM.CONST>
0

>  <SCORE.SYSTEM.DIHEDRAL>
0

>  <SCORE.SYSTEM.SOLV>
0

>  <SCORE.SYSTEM.norm>
0

>  <SCORE.heavy>
22

>  <SCORE.norm>
-0.333677

>  <RMSD>
0.754

$$$$
lig.pdb
 OpenBabel11021811523D
libRbt.so/2013.1/901 2013/11/27
 22 23  0  0  0  0  0  0  0  0999 V2000
   17.1132   -8.8926   25.4862 C   0  0  1  0  0  0  0  0  0  0  0  0
   19.1647   -8.3606   26.8115 C   0  0  1  0  0  0  0  0  0  0  0  0
   18.9887   -6.8116   27.3203 C   0  0  1  0  0  0  0  0  0  0  0  0
   20.4633   -6.2137   27.5719 C   0  0  2  0  0  0  0  0  0  0  0  0
   15.5397   -9.0718   25.6767 C   0  0  1  0  0  0  0  0  0  0  0  0
   15.1880  -10.5779   25.9916 C   0  0  2  0  0  0  0  0  0  0  0  0
   15.6446  -11.4764   24.7400 C   0  0  1  0  0  0  0  0  0  0  0  0
   17.2504  -11.3870   24.5450 C   0  0  1  0  0  0  0  0  0  0  0  0
   17.7854  -12.2368   23.3593 C   0  0  0  0  0  0  0  0  0  0  0  0
   21.1408   -7.0732   28.7485 C   0  0  1  0  0  0  0  0  0  0  0  0
   21.2832   -8.5891   28.2191 C   0  0  0  0  0  0  0  0  0  0  0  0
   19.8550   -9.2090   27.9064 C   0  0  2  0  0  0  0  0  0  0  0  0
   15.3319  -12.8946   24.9455 F   0  0  0  0  0  0  0  0  0  0  0  0
   15.1478   -8.1138   26.8118 N   0  0  0  0  0  0  0  0  0  0  0  0
   19.1984  -12.3086   23.2807 N   0  0  0  0  0  0  0  0  0  0  0  0
   22.5257   -6.5767   29.0256 N   0  0  0  0  0  0  0  0  0  0  0  0
   19.9708  -10.5771   27.4103 N   0  0  0  0  0  0  0  0  0  0  0  0
   17.9281   -8.9984   26.5849 O   0  0  0  0  0  0  0  0  0  0  0  0
   18.3279   -6.0354   26.2262 O   0  0  0  0  0  0  0  0  0  0  0  0
   20.3232   -4.9028   28.0049 O   0  0  0  0  0  0  0  0  0  0  0  0
   14.0200  -10.6524   26.1161 O   0  0  0  0  0  0  0  0  0  0  0  0
   17.5999   -9.8629   24.3621 O   0  0  0  0  0  0  0  0  0  0  0  0
  1  5  1  0  0  0  0
  1 18  1  1  0  0  0
  2 18  1  1  0  0  0
  2  3  1  0  0  0  0
  2 12  1  0  0  0  0
  3 19  1  6  0  0  0
  3  4  1  0  0  0  0
  4 20  1  1  0  0  0
  4 10  1  0  0  0  0
  5  6  1  0  0  0  0
  5 14  1  1  0  0  0
  6 21  1  6  0  0  0
  7 13  1  1  0  0  0
  7  6  1  0  0  0  0
  8  9  1  6  0  0  0
  8  7  1  0  0  0  0
 10 16  1  6  0  0  0
 11 10  1  0  0  0  0
 12 17  1  6  0  0  0
 12 11  1  0  0  0  0
 15  9  1  0  0  0  0
 22  8  1  0  0  0  0
 22  1  1  0  0  0  0
M  END
>  <CHROM.1>
-150.37732283,80.22613912,-172.22807168,18.11462668,-9.16240018,26.29573471
2.26195654,0.13644651,-2.65305504

>  <Name>
lig.pdb

>  <RI>
0

>  <Rbt.Current_Directory>
/home/itssahil/PROJECTS/Mol_Feturizer/New_Systems/rnas/5bxk

>  <Rbt.Executable>
rbdock ($Id: //depot/dev/client3/rdock/2013.1/src/exe/rbdock.cxx#4 $)

>  <Rbt.Library>
libRbt.so (2013.1, Build901 2013/11/27)

>  <Rbt.Parameter_File>
/export/apps/rDock/src/rDock_2013.1_src/data/scripts/dock_solv.prm

>  <Rbt.Receptor>
prm/pocket_docking_2.prm

>  <SCORE>
-7.4413

>  <SCORE.INTER>
-6.24293

>  <SCORE.INTER.CONST>
1

>  <SCORE.INTER.POLAR>
0

>  <SCORE.INTER.ROT>
3

>  <SCORE.INTER.SOLV>
23.2451

>  <SCORE.INTER.VDW>
-17.5103

>  <SCORE.INTER.norm>
-0.283769

>  <SCORE.INTRA>
-1.19837

>  <SCORE.INTRA.DIHEDRAL>
-1.59378

>  <SCORE.INTRA.DIHEDRAL.0>
7.18044

>  <SCORE.INTRA.POLAR>
0

>  <SCORE.INTRA.POLAR.0>
0

>  <SCORE.INTRA.REPUL>
0

>  <SCORE.INTRA.REPUL.0>
0

>  <SCORE.INTRA.SOLV>
-0.60707

>  <SCORE.INTRA.SOLV.lig_0>
-72.0615

>  <SCORE.INTRA.VDW>
-0.0979427

>  <SCORE.INTRA.VDW.0>
-1.54792

>  <SCORE.INTRA.norm>
-0.0544713

>  <SCORE.RESTR>
0

>  <SCORE.RESTR.CAVITY>
0

>  <SCORE.RESTR.norm>
0

>  <SCORE.SYSTEM>
0

>  <SCORE.SYSTEM.CONST>
0

>  <SCORE.SYSTEM.DIHEDRAL>
0

>  <SCORE.SYSTEM.SOLV>
0

>  <SCORE.SYSTEM.norm>
0

>  <SCORE.heavy>
22

>  <SCORE.norm>
-0.338241

>  <RMSD>
0.761

$$$$
lig.pdb
 OpenBabel11021811523D
libRbt.so/2013.1/901 2013/11/27
 22 23  0  0  0  0  0  0  0  0999 V2000
   17.1789   -8.9521   25.4763 C   0  0  1  0  0  0  0  0  0  0  0  0
   19.1978   -8.3738   26.8320 C   0  0  1  0  0  0  0  0  0  0  0  0
   19.0254   -6.8214   27.3315 C   0  0  1  0  0  0  0  0  0  0  0  0
   20.5011   -6.2278   27.5868 C   0  0  2  0  0  0  0  0  0  0  0  0
   15.6011   -9.1318   25.6255 C   0  0  1  0  0  0  0  0  0  0  0  0
   15.2460  -10.6256   25.9914 C   0  0  2  0  0  0  0  0  0  0  0  0
   15.7449  -11.5724   24.7926 C   0  0  1  0  0  0  0  0  0  0  0  0
   17.3557  -11.4823   24.6437 C   0  0  1  0  0  0  0  0  0  0  0  0
   17.9306  -12.3774   23.5111 C   0  0  0  0  0  0  0  0  0  0  0  0
   21.1697   -7.0835   28.7712 C   0  0  1  0  0  0  0  0  0  0  0  0
   21.3088   -8.6027   28.2507 C   0  0  0  0  0  0  0  0  0  0  0  0
   19.8796   -9.2188   27.9347 C   0  0  2  0  0  0  0  0  0  0  0  0
   15.4319  -12.9827   25.0469 F   0  0  0  0  0  0  0  0  0  0  0  0
   15.1702   -8.1301   26.7075 N   0  0  0  0  0  0  0  0  0  0  0  0
   19.3448  -12.4664   23.4958 N   0  0  0  0  0  0  0  0  0  0  0  0
   22.5552   -6.5907   29.0522 N   0  0  0  0  0  0  0  0  0  0  0  0
   19.9925  -10.5901   27.4467 N   0  0  0  0  0  0  0  0  0  0  0  0
   17.9599   -9.0081   26.6030 O   0  0  0  0  0  0  0  0  0  0  0  0
   18.3728   -6.0487   26.2300 O   0  0  0  0  0  0  0  0  0  0  0  0
   20.3640   -4.9140   28.0120 O   0  0  0  0  0  0  0  0  0  0  0  0
   14.0750  -10.7013   26.0829 O   0  0  0  0  0  0  0  0  0  0  0  0
   17.7043   -9.9652   24.4088 O   0  0  0  0  0  0  0  0  0  0  0  0
  1  5  1  0  0  0  0
  1 18  1  1  0  0  0
  2 18  1  1  0  0  0
  2  3  1  0  0  0  0
  2 12  1  0  0  0  0
  3 19  1  6  0  0  0
  3  4  1  0  0  0  0
  4 20  1  1  0  0  0
  4 10  1  0  0  0  0
  5  6  1  0  0  0  0
  5 14  1  1  0  0  0
  6 21  1  6  0  0  0
  7 13  1  1  0  0  0
  7  6  1  0  0  0  0
  8  9  1  6  0  0  0
  8  7  1  0  0  0  0
 10 16  1  6  0  0  0
 11 10  1  0  0  0  0
 12 17  1  6  0  0  0
 12 11  1  0  0  0  0
 15  9  1  0  0  0  0
 22  8  1  0  0  0  0
 22  1  1  0  0  0  0
M  END
>  <CHROM.1>
-151.61776159,83.38630430,-171.00977983,18.17524757,-9.21039778,26.32781022
2.25527138,0.16013462,-2.68663482

>  <Name>
lig.pdb

>  <RI>
0

>  <Rbt.Current_Directory>
/home/itssahil/PROJECTS/Mol_Feturizer/New_Systems/rnas/5bxk

>  <Rbt.Executable>
rbdock ($Id: //depot/dev/client3/rdock/2013.1/src/exe/rbdock.cxx#4 $)

>  <Rbt.Library>
libRbt.so (2013.1, Build901 2013/11/27)

>  <Rbt.Parameter_File>
/export/apps/rDock/src/rDock_2013.1_src/data/scripts/dock_solv.prm

>  <Rbt.Receptor>
prm/pocket_docking_2.prm

>  <SCORE>
-7.3721

>  <SCORE.INTER>
-6.37692

>  <SCORE.INTER.CONST>
1

>  <SCORE.INTER.POLAR>
0

>  <SCORE.INTER.ROT>
3

>  <SCORE.INTER.SOLV>
22.8013

>  <SCORE.INTER.VDW>
-17.4517

>  <SCORE.INTER.norm>
-0.28986

>  <SCORE.INTRA>
-0.995175

>  <SCORE.INTRA.DIHEDRAL>
-1.20571

>  <SCORE.INTRA.DIHEDRAL.0>
7.18044

>  <SCORE.INTRA.POLAR>
0

>  <SCORE.INTRA.POLAR.0>
0

>  <SCORE.INTRA.REPUL>
0

>  <SCORE.INTRA.REPUL.0>
0

>  <SCORE.INTRA.SOLV>
-0.536149

>  <SCORE.INTRA.SOLV.lig_0>
-72.0615

>  <SCORE.INTRA.VDW>
-0.124243

>  <SCORE.INTRA.VDW.0>
-1.54792

>  <SCORE.INTRA.norm>
-0.0452352

>  <SCORE.RESTR>
0

>  <SCORE.RESTR.CAVITY>
0

>  <SCORE.RESTR.norm>
0

>  <SCORE.SYSTEM>
0

>  <SCORE.SYSTEM.CONST>
0

>  <SCORE.SYSTEM.DIHEDRAL>
0

>  <SCORE.SYSTEM.SOLV>
0

>  <SCORE.SYSTEM.norm>
0

>  <SCORE.heavy>
22

>  <SCORE.norm>
-0.335095

>  <RMSD>
0.769

$$$$
lig.pdb
 OpenBabel11021811523D
libRbt.so/2013.1/901 2013/11/27
 22 23  0  0  0  0  0  0  0  0999 V2000
   16.9547   -9.2507   25.4725 C   0  0  1  0  0  0  0  0  0  0  0  0
   18.9573   -8.4979   26.7652 C   0  0  1  0  0  0  0  0  0  0  0  0
   18.5828   -6.9642   27.2088 C   0  0  1  0  0  0  0  0  0  0  0  0
   19.9676   -6.1812   27.4625 C   0  0  2  0  0  0  0  0  0  0  0  0
   15.4180   -9.6080   25.7069 C   0  0  1  0  0  0  0  0  0  0  0  0
   15.2454  -11.1506   25.9928 C   0  0  2  0  0  0  0  0  0  0  0  0
   15.7558  -11.9640   24.7043 C   0  0  1  0  0  0  0  0  0  0  0  0
   17.3345  -11.6923   24.4621 C   0  0  1  0  0  0  0  0  0  0  0  0
   17.9197  -12.4502   23.2384 C   0  0  0  0  0  0  0  0  0  0  0  0
   20.7181   -6.9068   28.6841 C   0  0  1  0  0  0  0  0  0  0  0  0
   21.0558   -8.4125   28.2180 C   0  0  0  0  0  0  0  0  0  0  0  0
   19.7210   -9.2139   27.9050 C   0  0  2  0  0  0  0  0  0  0  0  0
   15.6087  -13.4126   24.8819 F   0  0  0  0  0  0  0  0  0  0  0  0
   14.9613   -8.7256   26.8785 N   0  0  0  0  0  0  0  0  0  0  0  0
   19.3354  -12.4596   23.1774 N   0  0  0  0  0  0  0  0  0  0  0  0
   22.0258   -6.2344   28.9657 N   0  0  0  0  0  0  0  0  0  0  0  0
   20.0135  -10.5750   27.4659 N   0  0  0  0  0  0  0  0  0  0  0  0
   17.8129   -9.2903   26.5423 O   0  0  0  0  0  0  0  0  0  0  0  0
   17.8571   -6.3161   26.0732 O   0  0  0  0  0  0  0  0  0  0  0  0
   19.6593   -4.8821   27.8405 O   0  0  0  0  0  0  0  0  0  0  0  0
   14.0976  -11.3573   26.1513 O   0  0  0  0  0  0  0  0  0  0  0  0
   17.5074  -10.1350   24.3087 O   0  0  0  0  0  0  0  0  0  0  0  0
  1  5  1  0  0  0  0
  1 18  1  1  0  0  0
  2 18  1  1  0  0  0
  2  3  1  0  0  0  0
  2 12  1  0  0  0  0
  3 19  1  6  0  0  0
  3  4  1  0  0  0  0
  4 20  1  1  0  0  0
  4 10  1  0  0  0  0
  5  6  1  0  0  0  0
  5 14  1  1  0  0  0
  6 21  1  6  0  0  0
  7 13  1  1  0  0  0
  7  6  1  0  0  0  0
  8  9  1  6  0  0  0
  8  7  1  0  0  0  0
 10 16  1  6  0  0  0
 11 10  1  0  0  0  0
 12 17  1  6  0  0  0
 12 11  1  0  0  0  0
 15  9  1  0  0  0  0
 22  8  1  0  0  0  0
 22  1  1  0  0  0  0
M  END
>  <CHROM.1>
-148.39742065,74.51788927,-167.08176036,17.96961752,-9.39017876,26.24723306
2.15873135,0.06534115,-2.63648939

>  <Name>
lig.pdb

>  <RI>
0

>  <Rbt.Current_Directory>
/home/itssahil/PROJECTS/Mol_Feturizer/New_Systems/rnas/5bxk

>  <Rbt.Executable>
rbdock ($Id: //depot/dev/client3/rdock/2013.1/src/exe/rbdock.cxx#4 $)

>  <Rbt.Library>
libRbt.so (2013.1, Build901 2013/11/27)

>  <Rbt.Parameter_File>
/export/apps/rDock/src/rDock_2013.1_src/data/scripts/dock_solv.prm

>  <Rbt.Receptor>
prm/pocket_docking_3.prm

>  <SCORE>
-7.44374

>  <SCORE.INTER>
-6.16268

>  <SCORE.INTER.CONST>
1

>  <SCORE.INTER.POLAR>
0

>  <SCORE.INTER.ROT>
3

>  <SCORE.INTER.SOLV>
22.8784

>  <SCORE.INTER.VDW>
-17.3346

>  <SCORE.INTER.norm>
-0.280122

>  <SCORE.INTRA>
-1.28106

>  <SCORE.INTRA.DIHEDRAL>
-1.71448

>  <SCORE.INTRA.DIHEDRAL.0>
7.18044

>  <SCORE.INTRA.POLAR>
0

>  <SCORE.INTRA.POLAR.0>
0

>  <SCORE.INTRA.REPUL>
0

>  <SCORE.INTRA.REPUL.0>
0

>  <SCORE.INTRA.SOLV>
-0.785371

>  <SCORE.INTRA.SOLV.lig_0>
-72.0615

>  <SCORE.INTRA.VDW>
-0.031138

>  <SCORE.INTRA.VDW.0>
-1.54792

>  <SCORE.INTRA.norm>
-0.0582302

>  <SCORE.RESTR>
0

>  <SCORE.RESTR.CAVITY>
0

>  <SCORE.RESTR.norm>
0

>  <SCORE.SYSTEM>
0

>  <SCORE.SYSTEM.CONST>
0

>  <SCORE.SYSTEM.DIHEDRAL>
0

>  <SCORE.SYSTEM.SOLV>
0

>  <SCORE.SYSTEM.norm>
0

>  <SCORE.heavy>
22

>  <SCORE.norm>
-0.338352

>  <RMSD>
0.784

$$$$
lig.pdb
 OpenBabel11021811523D
libRbt.so/2013.1/901 2013/11/27
 22 23  0  0  0  0  0  0  0  0999 V2000
   16.9897   -9.3007   25.4755 C   0  0  1  0  0  0  0  0  0  0  0  0
   18.9958   -8.5306   26.7526 C   0  0  1  0  0  0  0  0  0  0  0  0
   18.5820   -6.9937   27.1472 C   0  0  1  0  0  0  0  0  0  0  0  0
   19.9454   -6.1773   27.4113 C   0  0  2  0  0  0  0  0  0  0  0  0
   15.4575   -9.6543   25.7428 C   0  0  1  0  0  0  0  0  0  0  0  0
   15.2859  -11.1984   26.0214 C   0  0  2  0  0  0  0  0  0  0  0  0
   15.7636  -12.0042   24.7157 C   0  0  1  0  0  0  0  0  0  0  0  0
   17.3373  -11.7362   24.4392 C   0  0  1  0  0  0  0  0  0  0  0  0
   17.8914  -12.4872   23.1969 C   0  0  0  0  0  0  0  0  0  0  0  0
   20.6813   -6.8562   28.6681 C   0  0  1  0  0  0  0  0  0  0  0  0
   21.0583   -8.3664   28.2494 C   0  0  0  0  0  0  0  0  0  0  0  0
   19.7466   -9.2018   27.9277 C   0  0  2  0  0  0  0  0  0  0  0  0
   15.6153  -13.4535   24.8863 F   0  0  0  0  0  0  0  0  0  0  0  0
   15.0311   -8.7789   26.9308 N   0  0  0  0  0  0  0  0  0  0  0  0
   19.3042  -12.4757   23.0874 N   0  0  0  0  0  0  0  0  0  0  0  0
   21.9691   -6.1511   28.9613 N   0  0  0  0  0  0  0  0  0  0  0  0
   20.0751  -10.5678   27.5312 N   0  0  0  0  0  0  0  0  0  0  0  0
   17.8722   -9.3509   26.5249 O   0  0  0  0  0  0  0  0  0  0  0  0
   17.8704   -6.3896   25.9789 O   0  0  0  0  0  0  0  0  0  0  0  0
   19.6037   -4.8752   27.7480 O   0  0  0  0  0  0  0  0  0  0  0  0
   14.1413  -11.4022   26.2050 O   0  0  0  0  0  0  0  0  0  0  0  0
   17.5122  -10.1784   24.2930 O   0  0  0  0  0  0  0  0  0  0  0  0
  1  5  1  0  0  0  0
  1 18  1  1  0  0  0
  2 18  1  1  0  0  0
  2  3  1  0  0  0  0
  2 12  1  0  0  0  0
  3 19  1  6  0  0  0
  3  4  1  0  0  0  0
  4 20  1  1  0  0  0
  4 10  1  0  0  0  0
  5  6  1  0  0  0  0
  5 14  1  1  0  0  0
  6 21  1  6  0  0  0
  7 13  1  1  0  0  0
  7  6  1  0  0  0  0
  8  9  1  6  0  0  0
  8  7  1  0  0  0  0
 10 16  1  6  0  0  0
 11 10  1  0  0  0  0
 12 17  1  6  0  0  0
 12 11  1  0  0  0  0
 15  9  1  0  0  0  0
 22  8  1  0  0  0  0
 22  1  1  0  0  0  0
M  END
>  <CHROM.1>
-145.77827805,70.08214146,-168.40844293,17.97954511,-9.41160448,26.23698949
2.14931247,0.04799681,-2.63084233

>  <Name>
lig.pdb

>  <RI>
0

>  <Rbt.Current_Directory>
/home/itssahil/PROJECTS/Mol_Feturizer/New_Systems/rnas/5bxk

>  <Rbt.Executable>
rbdock ($Id: //depot/dev/client3/rdock/2013.1/src/exe/rbdock.cxx#4 $)

>  <Rbt.Library>
libRbt.so (2013.1, Build901 2013/11/27)

>  <Rbt.Parameter_File>
/export/apps/rDock/src/rDock_2013.1_src/data/scripts/dock_solv.prm

>  <Rbt.Receptor>
prm/pocket_docking_2.prm

>  <SCORE>
-7.47856

>  <SCORE.INTER>
-6.18284

>  <SCORE.INTER.CONST>
1

>  <SCORE.INTER.POLAR>
0

>  <SCORE.INTER.ROT>
3

>  <SCORE.INTER.SOLV>
22.979

>  <SCORE.INTER.VDW>
-17.3816

>  <SCORE.INTER.norm>
-0.281038

>  <SCORE.INTRA>
-1.29571

>  <SCORE.INTRA.DIHEDRAL>
-1.8559

>  <SCORE.INTRA.DIHEDRAL.0>
7.18044

>  <SCORE.INTRA.POLAR>
0

>  <SCORE.INTRA.POLAR.0>
0

>  <SCORE.INTRA.REPUL>
0

>  <SCORE.INTRA.REPUL.0>
0

>  <SCORE.INTRA.SOLV>
-0.845845

>  <SCORE.INTRA.SOLV.lig_0>
-72.0615

>  <SCORE.INTRA.VDW>
0.0551616

>  <SCORE.INTRA.VDW.0>
-1.54792

>  <SCORE.INTRA.norm>
-0.058896

>  <SCORE.RESTR>
0

>  <SCORE.RESTR.CAVITY>
0

>  <SCORE.RESTR.norm>
0

>  <SCORE.SYSTEM>
0

>  <SCORE.SYSTEM.CONST>
0

>  <SCORE.SYSTEM.DIHEDRAL>
0

>  <SCORE.SYSTEM.SOLV>
0

>  <SCORE.SYSTEM.norm>
0

>  <SCORE.heavy>
22

>  <SCORE.norm>
-0.339934

>  <RMSD>
0.788

$$$$
lig.pdb
 OpenBabel11021811523D
libRbt.so/2013.1/901 2013/11/27
 22 23  0  0  0  0  0  0  0  0999 V2000
   17.0811   -9.2433   25.4253 C   0  0  1  0  0  0  0  0  0  0  0  0
   19.0730   -8.5146   26.7482 C   0  0  1  0  0  0  0  0  0  0  0  0
   18.6906   -6.9761   27.1678 C   0  0  1  0  0  0  0  0  0  0  0  0
   20.0699   -6.1949   27.4547 C   0  0  2  0  0  0  0  0  0  0  0  0
   15.5332   -9.5531   25.6539 C   0  0  1  0  0  0  0  0  0  0  0  0
   15.3127  -11.0890   25.9433 C   0  0  2  0  0  0  0  0  0  0  0  0
   15.8040  -11.9213   24.6594 C   0  0  1  0  0  0  0  0  0  0  0  0
   17.3912  -11.6982   24.4236 C   0  0  1  0  0  0  0  0  0  0  0  0
   17.9585  -12.4771   23.2046 C   0  0  0  0  0  0  0  0  0  0  0  0
   20.7827   -6.9122   28.7035 C   0  0  1  0  0  0  0  0  0  0  0  0
   21.1289   -8.4228   28.2601 C   0  0  0  0  0  0  0  0  0  0  0  0
   19.8012   -9.2230   27.9155 C   0  0  2  0  0  0  0  0  0  0  0  0
   15.6122  -13.3642   24.8405 F   0  0  0  0  0  0  0  0  0  0  0  0
   15.0983   -8.6538   26.8209 N   0  0  0  0  0  0  0  0  0  0  0  0
   19.3737  -12.5090   23.1369 N   0  0  0  0  0  0  0  0  0  0  0  0
   22.0838   -6.2412   29.0170 N   0  0  0  0  0  0  0  0  0  0  0  0
   20.1021  -10.5887   27.4966 N   0  0  0  0  0  0  0  0  0  0  0  0
   17.9330   -9.3056   26.4991 O   0  0  0  0  0  0  0  0  0  0  0  0
   18.0000   -6.3357   26.0062 O   0  0  0  0  0  0  0  0  0  0  0  0
   19.7550   -4.8918   27.8125 O   0  0  0  0  0  0  0  0  0  0  0  0
   14.1585  -11.2603   26.0973 O   0  0  0  0  0  0  0  0  0  0  0  0
   17.6118  -10.1473   24.2665 O   0  0  0  0  0  0  0  0  0  0  0  0
  1  5  1  0  0  0  0
  1 18  1  1  0  0  0
  2 18  1  1  0  0  0
  2  3  1  0  0  0  0
  2 12  1  0  0  0  0
  3 19  1  6  0  0  0
  3  4  1  0  0  0  0
  4 20  1  1  0  0  0
  4 10  1  0  0  0  0
  5  6  1  0  0  0  0
  5 14  1  1  0  0  0
  6 21  1  6  0  0  0
  7 13  1  1  0  0  0
  7  6  1  0  0  0  0
  8  9  1  6  0  0  0
  8  7  1  0  0  0  0
 10 16  1  6  0  0  0
 11 10  1  0  0  0  0
 12 17  1  6  0  0  0
 12 11  1  0  0  0  0
 15  9  1  0  0  0  0
 22  8  1  0  0  0  0
 22  1  1  0  0  0  0
M  END
>  <CHROM.1>
-145.89676724,72.19595444,-168.16408982,18.05274491,-9.38245236,26.22120687
2.16190498,0.08493089,-2.63716328

>  <Name>
lig.pdb

>  <RI>
0

>  <Rbt.Current_Directory>
/home/itssahil/PROJECTS/Mol_Feturizer/New_Systems/rnas/5bxk

>  <Rbt.Executable>
rbdock ($Id: //depot/dev/client3/rdock/2013.1/src/exe/rbdock.cxx#4 $)

>  <Rbt.Library>
libRbt.so (2013.1, Build901 2013/11/27)

>  <Rbt.Parameter_File>
/export/apps/rDock/src/rDock_2013.1_src/data/scripts/dock_solv.prm

>  <Rbt.Receptor>
prm/pocket_docking_2.prm

>  <SCORE>
-7.42951

>  <SCORE.INTER>
-6.24213

>  <SCORE.INTER.CONST>
1

>  <SCORE.INTER.POLAR>
0

>  <SCORE.INTER.ROT>
3

>  <SCORE.INTER.SOLV>
23.1554

>  <SCORE.INTER.VDW>
-17.4799

>  <SCORE.INTER.norm>
-0.283733

>  <SCORE.INTRA>
-1.18738

>  <SCORE.INTRA.DIHEDRAL>
-1.6381

>  <SCORE.INTRA.DIHEDRAL.0>
7.18044

>  <SCORE.INTRA.POLAR>
0

>  <SCORE.INTRA.POLAR.0>
0

>  <SCORE.INTRA.REPUL>
0

>  <SCORE.INTRA.REPUL.0>
0

>  <SCORE.INTRA.SOLV>
-0.769807

>  <SCORE.INTRA.SOLV.lig_0>
-72.0615

>  <SCORE.INTRA.VDW>
0.0165725

>  <SCORE.INTRA.VDW.0>
-1.54792

>  <SCORE.INTRA.norm>
-0.0539719

>  <SCORE.RESTR>
0

>  <SCORE.RESTR.CAVITY>
0

>  <SCORE.RESTR.norm>
0

>  <SCORE.SYSTEM>
0

>  <SCORE.SYSTEM.CONST>
0

>  <SCORE.SYSTEM.DIHEDRAL>
0

>  <SCORE.SYSTEM.SOLV>
0

>  <SCORE.SYSTEM.norm>
0

>  <SCORE.heavy>
22

>  <SCORE.norm>
-0.337705

>  <RMSD>
0.789

$$$$
lig.pdb
 OpenBabel11021811523D
libRbt.so/2013.1/901 2013/11/27
 22 23  0  0  0  0  0  0  0  0999 V2000
   16.9608   -9.0484   25.7169 C   0  0  1  0  0  0  0  0  0  0  0  0
   19.0465   -8.4082   26.9369 C   0  0  1  0  0  0  0  0  0  0  0  0
   18.8032   -6.8749   27.4651 C   0  0  1  0  0  0  0  0  0  0  0  0
   20.2497   -6.1899   27.6477 C   0  0  2  0  0  0  0  0  0  0  0  0
   15.4463   -9.4898   25.9526 C   0  0  1  0  0  0  0  0  0  0  0  0
   15.3479  -11.0541   26.1386 C   0  0  2  0  0  0  0  0  0  0  0  0
   15.8686  -11.7575   24.7908 C   0  0  1  0  0  0  0  0  0  0  0  0
   17.4287  -11.3989   24.5409 C   0  0  1  0  0  0  0  0  0  0  0  0
   18.0228  -12.0478   23.2601 C   0  0  0  0  0  0  0  0  0  0  0  0
   21.0356   -7.0119   28.7829 C   0  0  1  0  0  0  0  0  0  0  0  0
   21.2424   -8.5141   28.2361 C   0  0  0  0  0  0  0  0  0  0  0  0
   19.8403   -9.2179   27.9901 C   0  0  2  0  0  0  0  0  0  0  0  0
   15.7893  -13.2197   24.8746 F   0  0  0  0  0  0  0  0  0  0  0  0
   14.9740   -8.7076   27.1875 N   0  0  0  0  0  0  0  0  0  0  0  0
   18.1358  -13.4592   23.3170 N   0  0  0  0  0  0  0  0  0  0  0  0
   22.4002   -6.4337   28.9947 N   0  0  0  0  0  0  0  0  0  0  0  0
   20.0134  -10.5744   27.4790 N   0  0  0  0  0  0  0  0  0  0  0  0
   17.8407   -9.1187   26.7672 O   0  0  0  0  0  0  0  0  0  0  0  0
   18.0431   -6.1354   26.4107 O   0  0  0  0  0  0  0  0  0  0  0  0
   20.0528   -4.8918   28.0965 O   0  0  0  0  0  0  0  0  0  0  0  0
   14.2138  -11.3228   26.3022 O   0  0  0  0  0  0  0  0  0  0  0  0
   17.5292   -9.8287   24.4880 O   0  0  0  0  0  0  0  0  0  0  0  0
  1  5  1  0  0  0  0
  1 18  1  1  0  0  0
  2 18  1  1  0  0  0
  2  3  1  0  0  0  0
  2 12  1  0  0  0  0
  3 19  1  6  0  0  0
  3  4  1  0  0  0  0
  4 20  1  1  0  0  0
  4 10  1  0  0  0  0
  5  6  1  0  0  0  0
  5 14  1  1  0  0  0
  6 21  1  6  0  0  0
  7 13  1  1  0  0  0
  7  6  1  0  0  0  0
  8  9  1  6  0  0  0
  8  7  1  0  0  0  0
 10 16  1  6  0  0  0
 11 10  1  0  0  0  0
 12 17  1  6  0  0  0
 12 11  1  0  0  0  0
 15  9  1  0  0  0  0
 22  8  1  0  0  0  0
 22  1  1  0  0  0  0
M  END
>  <CHROM.1>
-157.30902951,79.55673762,-67.69012660,18.05231164,-9.34222282,26.39559800
2.18127110,0.09932244,-2.64887206

>  <Name>
lig.pdb

>  <RI>
0

>  <Rbt.Current_Directory>
/home/itssahil/PROJECTS/Mol_Feturizer/New_Systems/rnas/5bxk

>  <Rbt.Executable>
rbdock ($Id: //depot/dev/client3/rdock/2013.1/src/exe/rbdock.cxx#4 $)

>  <Rbt.Library>
libRbt.so (2013.1, Build901 2013/11/27)

>  <Rbt.Parameter_File>
/export/apps/rDock/src/rDock_2013.1_src/data/scripts/dock_solv.prm

>  <Rbt.Receptor>
prm/pocket_docking_2.prm

>  <SCORE>
-8.46099

>  <SCORE.INTER>
-6.90857

>  <SCORE.INTER.CONST>
1

>  <SCORE.INTER.POLAR>
0

>  <SCORE.INTER.ROT>
3

>  <SCORE.INTER.SOLV>
20.0698

>  <SCORE.INTER.VDW>
-16.8956

>  <SCORE.INTER.norm>
-0.314026

>  <SCORE.INTRA>
-1.55242

>  <SCORE.INTRA.DIHEDRAL>
-2.93594

>  <SCORE.INTRA.DIHEDRAL.0>
7.18044

>  <SCORE.INTRA.POLAR>
0

>  <SCORE.INTRA.POLAR.0>
0

>  <SCORE.INTRA.REPUL>
0

>  <SCORE.INTRA.REPUL.0>
0

>  <SCORE.INTRA.SOLV>
-0.0108994

>  <SCORE.INTRA.SOLV.lig_0>
-72.0615

>  <SCORE.INTRA.VDW>
-0.0790015

>  <SCORE.INTRA.VDW.0>
-1.54792

>  <SCORE.INTRA.norm>
-0.0705646

>  <SCORE.RESTR>
0

>  <SCORE.RESTR.CAVITY>
0

>  <SCORE.RESTR.norm>
0

>  <SCORE.SYSTEM>
0

>  <SCORE.SYSTEM.CONST>
0

>  <SCORE.SYSTEM.DIHEDRAL>
0

>  <SCORE.SYSTEM.SOLV>
0

>  <SCORE.SYSTEM.norm>
0

>  <SCORE.heavy>
22

>  <SCORE.norm>
-0.38459

>  <RMSD>
0.830

$$$$
lig.pdb
 OpenBabel11021811523D
libRbt.so/2013.1/901 2013/11/27
 22 23  0  0  0  0  0  0  0  0999 V2000
   16.9335   -9.0286   25.7348 C   0  0  1  0  0  0  0  0  0  0  0  0
   19.0330   -8.4039   26.9392 C   0  0  1  0  0  0  0  0  0  0  0  0
   18.7934   -6.8727   27.4751 C   0  0  1  0  0  0  0  0  0  0  0  0
   20.2413   -6.1890   27.6522 C   0  0  2  0  0  0  0  0  0  0  0  0
   15.4234   -9.4791   25.9810 C   0  0  1  0  0  0  0  0  0  0  0  0
   15.3324  -11.0466   26.1421 C   0  0  2  0  0  0  0  0  0  0  0  0
   15.8394  -11.7257   24.7767 C   0  0  1  0  0  0  0  0  0  0  0  0
   17.3952  -11.3575   24.5145 C   0  0  1  0  0  0  0  0  0  0  0  0
   17.9763  -11.9830   23.2162 C   0  0  0  0  0  0  0  0  0  0  0  0
   21.0334   -7.0160   28.7794 C   0  0  1  0  0  0  0  0  0  0  0  0
   21.2365   -8.5160   28.2251 C   0  0  0  0  0  0  0  0  0  0  0  0
   19.8326   -9.2183   27.9842 C   0  0  2  0  0  0  0  0  0  0  0  0
   15.7659  -13.1894   24.8372 F   0  0  0  0  0  0  0  0  0  0  0  0
   14.9631   -8.7191   27.2342 N   0  0  0  0  0  0  0  0  0  0  0  0
   18.0052  -13.3998   23.2107 N   0  0  0  0  0  0  0  0  0  0  0  0
   22.3995   -6.4392   28.9856 N   0  0  0  0  0  0  0  0  0  0  0  0
   20.0022  -10.5727   27.4665 N   0  0  0  0  0  0  0  0  0  0  0  0
   17.8261   -9.1132   26.7735 O   0  0  0  0  0  0  0  0  0  0  0  0
   18.0275   -6.1285   26.4282 O   0  0  0  0  0  0  0  0  0  0  0  0
   20.0474   -4.8927   28.1076 O   0  0  0  0  0  0  0  0  0  0  0  0
   14.2011  -11.3219   26.3146 O   0  0  0  0  0  0  0  0  0  0  0  0
   17.4900   -9.7863   24.4866 O   0  0  0  0  0  0  0  0  0  0  0  0
  1  5  1  0  0  0  0
  1 18  1  1  0  0  0
  2 18  1  1  0  0  0
  2  3  1  0  0  0  0
  2 12  1  0  0  0  0
  3 19  1  6  0  0  0
  3  4  1  0  0  0  0
  4 20  1  1  0  0  0
  4 10  1  0  0  0  0
  5  6  1  0  0  0  0
  5 14  1  1  0  0  0
  6 21  1  6  0  0  0
  7 13  1  1  0  0  0
  7  6  1  0  0  0  0
  8  9  1  6  0  0  0
  8  7  1  0  0  0  0
 10 16  1  6  0  0  0
 11 10  1  0  0  0  0
 12 17  1  6  0  0  0
 12 11  1  0  0  0  0
 15  9  1  0  0  0  0
 22  8  1  0  0  0  0
 22  1  1  0  0  0  0
M  END
>  <CHROM.1>
-157.48280512,78.85614070,-63.37758525,18.03014728,-9.32806530,26.39028141
2.18500477,0.08842551,-2.63479402

>  <Name>
lig.pdb

>  <RI>
0

>  <Rbt.Current_Directory>
/home/itssahil/PROJECTS/Mol_Feturizer/New_Systems/rnas/5bxk

>  <Rbt.Executable>
rbdock ($Id: //depot/dev/client3/rdock/2013.1/src/exe/rbdock.cxx#4 $)

>  <Rbt.Library>
libRbt.so (2013.1, Build901 2013/11/27)

>  <Rbt.Parameter_File>
/export/apps/rDock/src/rDock_2013.1_src/data/scripts/dock_solv.prm

>  <Rbt.Receptor>
prm/pocket_docking_2.prm

>  <SCORE>
-8.50163

>  <SCORE.INTER>
-6.84163

>  <SCORE.INTER.CONST>
1

>  <SCORE.INTER.POLAR>
0

>  <SCORE.INTER.ROT>
3

>  <SCORE.INTER.SOLV>
20.5169

>  <SCORE.INTER.VDW>
-17.0001

>  <SCORE.INTER.norm>
-0.310983

>  <SCORE.INTRA>
-1.65999

>  <SCORE.INTRA.DIHEDRAL>
-3.2457

>  <SCORE.INTRA.DIHEDRAL.0>
7.18044

>  <SCORE.INTRA.POLAR>
0

>  <SCORE.INTRA.POLAR.0>
0

>  <SCORE.INTRA.REPUL>
0

>  <SCORE.INTRA.REPUL.0>
0

>  <SCORE.INTRA.SOLV>
0.0150156

>  <SCORE.INTRA.SOLV.lig_0>
-72.0615

>  <SCORE.INTRA.VDW>
-0.0446512

>  <SCORE.INTRA.VDW.0>
-1.54792

>  <SCORE.INTRA.norm>
-0.0754542

>  <SCORE.RESTR>
0

>  <SCORE.RESTR.CAVITY>
0

>  <SCORE.RESTR.norm>
0

>  <SCORE.SYSTEM>
0

>  <SCORE.SYSTEM.CONST>
0

>  <SCORE.SYSTEM.DIHEDRAL>
0

>  <SCORE.SYSTEM.SOLV>
0

>  <SCORE.SYSTEM.norm>
0

>  <SCORE.heavy>
22

>  <SCORE.norm>
-0.386438

>  <RMSD>
0.839

$$$$
lig.pdb
 OpenBabel11021811523D
libRbt.so/2013.1/901 2013/11/27
 22 23  0  0  0  0  0  0  0  0999 V2000
   16.8566   -9.4702   25.2228 C   0  0  1  0  0  0  0  0  0  0  0  0
   18.7394   -8.4212   26.4888 C   0  0  1  0  0  0  0  0  0  0  0  0
   18.1001   -6.9302   26.7280 C   0  0  1  0  0  0  0  0  0  0  0  0
   19.3218   -5.9184   27.0089 C   0  0  2  0  0  0  0  0  0  0  0  0
   15.2963   -9.4430   25.5530 C   0  0  1  0  0  0  0  0  0  0  0  0
   14.8516  -10.7938   26.2377 C   0  0  2  0  0  0  0  0  0  0  0  0
   15.1227  -11.9966   25.2071 C   0  0  1  0  0  0  0  0  0  0  0  0
   16.7074  -12.1149   24.8918 C   0  0  1  0  0  0  0  0  0  0  0  0
   17.0660  -13.2634   23.9085 C   0  0  0  0  0  0  0  0  0  0  0  0
   20.0458   -6.3962   28.3615 C   0  0  1  0  0  0  0  0  0  0  0  0
   20.6470   -7.8678   28.0939 C   0  0  0  0  0  0  0  0  0  0  0  0
   19.4831   -8.8954   27.7604 C   0  0  2  0  0  0  0  0  0  0  0  0
   14.7144  -13.2914   25.7625 F   0  0  0  0  0  0  0  0  0  0  0  0
   15.0842   -8.2158   26.4522 N   0  0  0  0  0  0  0  0  0  0  0  0
   18.4563  -13.4490   23.7068 N   0  0  0  0  0  0  0  0  0  0  0  0
   21.2052   -5.5026   28.6758 N   0  0  0  0  0  0  0  0  0  0  0  0
   20.0159  -10.2294   27.4999 N   0  0  0  0  0  0  0  0  0  0  0  0
   17.7527   -9.4015   26.2595 O   0  0  0  0  0  0  0  0  0  0  0  0
   17.4034   -6.5163   25.4711 O   0  0  0  0  0  0  0  0  0  0  0  0
   18.7888   -4.6538   27.2144 O   0  0  0  0  0  0  0  0  0  0  0  0
   13.6967  -10.7209   26.4525 O   0  0  0  0  0  0  0  0  0  0  0  0
   17.1629  -10.7162   24.3309 O   0  0  0  0  0  0  0  0  0  0  0  0
  1  5  1  0  0  0  0
  1 18  1  1  0  0  0
  2 18  1  1  0  0  0
  2  3  1  0  0  0  0
  2 12  1  0  0  0  0
  3 19  1  6  0  0  0
  3  4  1  0  0  0  0
  4 20  1  1  0  0  0
  4 10  1  0  0  0  0
  5  6  1  0  0  0  0
  5 14  1  1  0  0  0
  6 21  1  6  0  0  0
  7 13  1  1  0  0  0
  7  6  1  0  0  0  0
  8  9  1  6  0  0  0
  8  7  1  0  0  0  0
 10 16  1  6  0  0  0
 11 10  1  0  0  0  0
 12 17  1  6  0  0  0
 12 11  1  0  0  0  0
 15  9  1  0  0  0  0
 22  8  1  0  0  0  0
 22  1  1  0  0  0  0
M  END
>  <CHROM.1>
-119.76097333,62.66323358,-175.14478233,17.50802999,-9.32592680,26.22001994
2.12673446,0.13350131,-2.81612193

>  <Name>
lig.pdb

>  <RI>
0

>  <Rbt.Current_Directory>
/home/itssahil/PROJECTS/Mol_Feturizer/New_Systems/rnas/5bxk

>  <Rbt.Executable>
rbdock ($Id: //depot/dev/client3/rdock/2013.1/src/exe/rbdock.cxx#4 $)

>  <Rbt.Library>
libRbt.so (2013.1, Build901 2013/11/27)

>  <Rbt.Parameter_File>
/export/apps/rDock/src/rDock_2013.1_src/data/scripts/dock_solv.prm

>  <Rbt.Receptor>
prm/pocket_docking_4.prm

>  <SCORE>
-7.44384

>  <SCORE.INTER>
-7.46626

>  <SCORE.INTER.CONST>
1

>  <SCORE.INTER.POLAR>
0

>  <SCORE.INTER.ROT>
3

>  <SCORE.INTER.SOLV>
19.3066

>  <SCORE.INTER.VDW>
-17.013

>  <SCORE.INTER.norm>
-0.339375

>  <SCORE.INTRA>
0.0224149

>  <SCORE.INTRA.DIHEDRAL>
0.00669759

>  <SCORE.INTRA.DIHEDRAL.0>
7.18044

>  <SCORE.INTRA.POLAR>
0

>  <SCORE.INTRA.POLAR.0>
0

>  <SCORE.INTRA.REPUL>
0

>  <SCORE.INTRA.REPUL.0>
0

>  <SCORE.INTRA.SOLV>
0.106395

>  <SCORE.INTRA.SOLV.lig_0>
-72.0615

>  <SCORE.INTRA.VDW>
-0.0341315

>  <SCORE.INTRA.VDW.0>
-1.54792

>  <SCORE.INTRA.norm>
0.00101886

>  <SCORE.RESTR>
0

>  <SCORE.RESTR.CAVITY>
0

>  <SCORE.RESTR.norm>
0

>  <SCORE.SYSTEM>
0

>  <SCORE.SYSTEM.CONST>
0

>  <SCORE.SYSTEM.DIHEDRAL>
0

>  <SCORE.SYSTEM.SOLV>
0

>  <SCORE.SYSTEM.norm>
0

>  <SCORE.heavy>
22

>  <SCORE.norm>
-0.338356

>  <RMSD>
0.846

$$$$
lig.pdb
 OpenBabel11021811523D
libRbt.so/2013.1/901 2013/11/27
 22 23  0  0  0  0  0  0  0  0999 V2000
   17.0488   -9.3725   25.4272 C   0  0  1  0  0  0  0  0  0  0  0  0
   19.0381   -8.5878   26.7216 C   0  0  1  0  0  0  0  0  0  0  0  0
   18.5903   -7.0533   27.0876 C   0  0  1  0  0  0  0  0  0  0  0  0
   19.9335   -6.2126   27.3775 C   0  0  2  0  0  0  0  0  0  0  0  0
   15.5185   -9.7339   25.6945 C   0  0  1  0  0  0  0  0  0  0  0  0
   15.3531  -11.2809   25.9606 C   0  0  2  0  0  0  0  0  0  0  0  0
   15.8311  -12.0740   24.6473 C   0  0  1  0  0  0  0  0  0  0  0  0
   17.4032  -11.7979   24.3698 C   0  0  1  0  0  0  0  0  0  0  0  0
   17.9574  -12.5366   23.1202 C   0  0  0  0  0  0  0  0  0  0  0  0
   20.6469   -6.8657   28.6607 C   0  0  1  0  0  0  0  0  0  0  0  0
   21.0581   -8.3744   28.2693 C   0  0  0  0  0  0  0  0  0  0  0  0
   19.7683   -9.2339   27.9233 C   0  0  2  0  0  0  0  0  0  0  0  0
   15.6884  -13.5252   24.8062 F   0  0  0  0  0  0  0  0  0  0  0  0
   15.0913   -8.8699   26.8907 N   0  0  0  0  0  0  0  0  0  0  0  0
   19.3712  -12.5432   23.0228 N   0  0  0  0  0  0  0  0  0  0  0  0
   21.9155   -6.1372   28.9790 N   0  0  0  0  0  0  0  0  0  0  0  0
   20.1282  -10.5989   27.5512 N   0  0  0  0  0  0  0  0  0  0  0  0
   17.9336   -9.4282   26.4743 O   0  0  0  0  0  0  0  0  0  0  0  0
   17.9001   -6.4735   25.8944 O   0  0  0  0  0  0  0  0  0  0  0  0
   19.5631   -4.9124   27.6902 O   0  0  0  0  0  0  0  0  0  0  0  0
   14.2097  -11.4904   26.1448 O   0  0  0  0  0  0  0  0  0  0  0  0
   17.5721  -10.2384   24.2363 O   0  0  0  0  0  0  0  0  0  0  0  0
  1  5  1  0  0  0  0
  1 18  1  1  0  0  0
  2 18  1  1  0  0  0
  2  3  1  0  0  0  0
  2 12  1  0  0  0  0
  3 19  1  6  0  0  0
  3  4  1  0  0  0  0
  4 20  1  1  0  0  0
  4 10  1  0  0  0  0
  5  6  1  0  0  0  0
  5 14  1  1  0  0  0
  6 21  1  6  0  0  0
  7 13  1  1  0  0  0
  7  6  1  0  0  0  0
  8  9  1  6  0  0  0
  8  7  1  0  0  0  0
 10 16  1  6  0  0  0
 11 10  1  0  0  0  0
 12 17  1  6  0  0  0
 12 11  1  0  0  0  0
 15  9  1  0  0  0  0
 22  8  1  0  0  0  0
 22  1  1  0  0  0  0
M  END
>  <CHROM.1>
-144.29824360,67.45303237,-167.14450190,18.01613939,-9.46732737,26.19283390
2.13322869,0.04730713,-2.62481609

>  <Name>
lig.pdb

>  <RI>
0

>  <Rbt.Current_Directory>
/home/itssahil/PROJECTS/Mol_Feturizer/New_Systems/rnas/5bxk

>  <Rbt.Executable>
rbdock ($Id: //depot/dev/client3/rdock/2013.1/src/exe/rbdock.cxx#4 $)

>  <Rbt.Library>
libRbt.so (2013.1, Build901 2013/11/27)

>  <Rbt.Parameter_File>
/export/apps/rDock/src/rDock_2013.1_src/data/scripts/dock_solv.prm

>  <Rbt.Receptor>
prm/pocket_docking_2.prm

>  <SCORE>
-7.473

>  <SCORE.INTER>
-6.258

>  <SCORE.INTER.CONST>
1

>  <SCORE.INTER.POLAR>
0

>  <SCORE.INTER.ROT>
3

>  <SCORE.INTER.SOLV>
23.1579

>  <SCORE.INTER.VDW>
-17.4913

>  <SCORE.INTER.norm>
-0.284454

>  <SCORE.INTRA>
-1.2212

>  <SCORE.INTRA.DIHEDRAL>
-1.71134

>  <SCORE.INTRA.DIHEDRAL.0>
7.18044

>  <SCORE.INTRA.POLAR>
0

>  <SCORE.INTRA.POLAR.0>
0

>  <SCORE.INTRA.REPUL>
0

>  <SCORE.INTRA.REPUL.0>
0

>  <SCORE.INTRA.SOLV>
-0.888195

>  <SCORE.INTRA.SOLV.lig_0>
-72.0615

>  <SCORE.INTRA.VDW>
0.0785683

>  <SCORE.INTRA.VDW.0>
-1.54792

>  <SCORE.INTRA.norm>
-0.0555091

>  <SCORE.RESTR>
0.00620105

>  <SCORE.RESTR.CAVITY>
0.00620105

>  <SCORE.RESTR.norm>
0.000281866

>  <SCORE.SYSTEM>
0

>  <SCORE.SYSTEM.CONST>
0

>  <SCORE.SYSTEM.DIHEDRAL>
0

>  <SCORE.SYSTEM.SOLV>
0

>  <SCORE.SYSTEM.norm>
0

>  <SCORE.heavy>
22

>  <SCORE.norm>
-0.339682

>  <RMSD>
0.854

$$$$
lig.pdb
 OpenBabel11021811523D
libRbt.so/2013.1/901 2013/11/27
 22 23  0  0  0  0  0  0  0  0999 V2000
   16.9259   -9.0627   25.7170 C   0  0  1  0  0  0  0  0  0  0  0  0
   19.0195   -8.4250   26.9248 C   0  0  1  0  0  0  0  0  0  0  0  0
   18.7820   -6.8988   27.4759 C   0  0  1  0  0  0  0  0  0  0  0  0
   20.2304   -6.2149   27.6481 C   0  0  2  0  0  0  0  0  0  0  0  0
   15.4158   -9.5162   25.9579 C   0  0  1  0  0  0  0  0  0  0  0  0
   15.3293  -11.0825   26.1332 C   0  0  2  0  0  0  0  0  0  0  0  0
   15.8473  -11.7726   24.7776 C   0  0  1  0  0  0  0  0  0  0  0  0
   17.4034  -11.4014   24.5217 C   0  0  1  0  0  0  0  0  0  0  0  0
   17.9949  -12.0371   23.2330 C   0  0  0  0  0  0  0  0  0  0  0  0
   21.0319   -7.0508   28.7621 C   0  0  1  0  0  0  0  0  0  0  0  0
   21.2326   -8.5456   28.1932 C   0  0  0  0  0  0  0  0  0  0  0  0
   19.8279   -9.2475   27.9567 C   0  0  2  0  0  0  0  0  0  0  0  0
   15.7785  -13.2359   24.8513 F   0  0  0  0  0  0  0  0  0  0  0  0
   14.9450   -8.7461   27.2009 N   0  0  0  0  0  0  0  0  0  0  0  0
   18.0793  -13.4513   23.2631 N   0  0  0  0  0  0  0  0  0  0  0  0
   22.3988   -6.4741   28.9631 N   0  0  0  0  0  0  0  0  0  0  0  0
   19.9952  -10.5971   27.4259 N   0  0  0  0  0  0  0  0  0  0  0  0
   17.8121   -9.1343   26.7620 O   0  0  0  0  0  0  0  0  0  0  0  0
   18.0074   -6.1465   26.4414 O   0  0  0  0  0  0  0  0  0  0  0  0
   20.0384   -4.9229   28.1163 O   0  0  0  0  0  0  0  0  0  0  0  0
   14.1979  -11.3601   26.3011 O   0  0  0  0  0  0  0  0  0  0  0  0
   17.4929   -9.8302   24.4795 O   0  0  0  0  0  0  0  0  0  0  0  0
  1  5  1  0  0  0  0
  1 18  1  1  0  0  0
  2 18  1  1  0  0  0
  2  3  1  0  0  0  0
  2 12  1  0  0  0  0
  3 19  1  6  0  0  0
  3  4  1  0  0  0  0
  4 20  1  1  0  0  0
  4 10  1  0  0  0  0
  5  6  1  0  0  0  0
  5 14  1  1  0  0  0
  6 21  1  6  0  0  0
  7 13  1  1  0  0  0
  7  6  1  0  0  0  0
  8  9  1  6  0  0  0
  8  7  1  0  0  0  0
 10 16  1  6  0  0  0
 11 10  1  0  0  0  0
 12 17  1  6  0  0  0
 12 11  1  0  0  0  0
 15  9  1  0  0  0  0
 22  8  1  0  0  0  0
 22  1  1  0  0  0  0
M  END
>  <CHROM.1>
-157.89013644,80.38230794,-65.82616097,18.02968509,-9.36244638,26.38362703
2.18271278,0.08984115,-2.64028702

>  <Name>
lig.pdb

>  <RI>
0

>  <Rbt.Current_Directory>
/home/itssahil/PROJECTS/Mol_Feturizer/New_Systems/rnas/5bxk

>  <Rbt.Executable>
rbdock ($Id: //depot/dev/client3/rdock/2013.1/src/exe/rbdock.cxx#4 $)

>  <Rbt.Library>
libRbt.so (2013.1, Build901 2013/11/27)

>  <Rbt.Parameter_File>
/export/apps/rDock/src/rDock_2013.1_src/data/scripts/dock_solv.prm

>  <Rbt.Receptor>
prm/pocket_docking_2.prm

>  <SCORE>
-8.4301

>  <SCORE.INTER>
-6.87446

>  <SCORE.INTER.CONST>
1

>  <SCORE.INTER.POLAR>
0

>  <SCORE.INTER.ROT>
3

>  <SCORE.INTER.SOLV>
20.3011

>  <SCORE.INTER.VDW>
-16.95

>  <SCORE.INTER.norm>
-0.312476

>  <SCORE.INTRA>
-1.55564

>  <SCORE.INTRA.DIHEDRAL>
-2.98737

>  <SCORE.INTRA.DIHEDRAL.0>
7.18044

>  <SCORE.INTRA.POLAR>
0

>  <SCORE.INTRA.POLAR.0>
0

>  <SCORE.INTRA.REPUL>
0

>  <SCORE.INTRA.REPUL.0>
0

>  <SCORE.INTRA.SOLV>
0.0253074

>  <SCORE.INTRA.SOLV.lig_0>
-72.0615

>  <SCORE.INTRA.VDW>
-0.0746061

>  <SCORE.INTRA.VDW.0>
-1.54792

>  <SCORE.INTRA.norm>
-0.0707107

>  <SCORE.RESTR>
0

>  <SCORE.RESTR.CAVITY>
0

>  <SCORE.RESTR.norm>
0

>  <SCORE.SYSTEM>
0

>  <SCORE.SYSTEM.CONST>
0

>  <SCORE.SYSTEM.DIHEDRAL>
0

>  <SCORE.SYSTEM.SOLV>
0

>  <SCORE.SYSTEM.norm>
0

>  <SCORE.heavy>
22

>  <SCORE.norm>
-0.383186

>  <RMSD>
0.857

$$$$
lig.pdb
 OpenBabel11021811523D
libRbt.so/2013.1/901 2013/11/27
 22 23  0  0  0  0  0  0  0  0999 V2000
   16.9534   -8.9770   25.7118 C   0  0  1  0  0  0  0  0  0  0  0  0
   19.0590   -8.4026   26.9303 C   0  0  1  0  0  0  0  0  0  0  0  0
   18.8493   -6.8807   27.5039 C   0  0  1  0  0  0  0  0  0  0  0  0
   20.3100   -6.2272   27.6896 C   0  0  2  0  0  0  0  0  0  0  0  0
   15.4308   -9.3875   25.9510 C   0  0  1  0  0  0  0  0  0  0  0  0
   15.2975  -10.9523   26.1098 C   0  0  2  0  0  0  0  0  0  0  0  0
   15.7923  -11.6431   24.7459 C   0  0  1  0  0  0  0  0  0  0  0  0
   17.3585  -11.3161   24.4908 C   0  0  1  0  0  0  0  0  0  0  0  0
   17.9283  -11.9555   23.1943 C   0  0  0  0  0  0  0  0  0  0  0  0
   21.0927   -7.0949   28.7925 C   0  0  1  0  0  0  0  0  0  0  0  0
   21.2664   -8.5845   28.2015 C   0  0  0  0  0  0  0  0  0  0  0  0
   19.8491   -9.2559   27.9514 C   0  0  2  0  0  0  0  0  0  0  0  0
   15.6798  -13.1045   24.8043 F   0  0  0  0  0  0  0  0  0  0  0  0
   14.9854   -8.6169   27.2030 N   0  0  0  0  0  0  0  0  0  0  0  0
   17.9472  -13.3724   23.1994 N   0  0  0  0  0  0  0  0  0  0  0  0
   22.4699   -6.5474   29.0052 N   0  0  0  0  0  0  0  0  0  0  0  0
   19.9920  -10.6003   27.4006 N   0  0  0  0  0  0  0  0  0  0  0  0
   17.8389   -9.0863   26.7542 O   0  0  0  0  0  0  0  0  0  0  0  0
   18.0917   -6.0983   26.4792 O   0  0  0  0  0  0  0  0  0  0  0  0
   20.1415   -4.9390   28.1768 O   0  0  0  0  0  0  0  0  0  0  0  0
   14.1586  -11.1976   26.2771 O   0  0  0  0  0  0  0  0  0  0  0  0
   17.4950   -9.7480   24.4651 O   0  0  0  0  0  0  0  0  0  0  0  0
  1  5  1  0  0  0  0
  1 18  1  1  0  0  0
  2 18  1  1  0  0  0
  2  3  1  0  0  0  0
  2 12  1  0  0  0  0
  3 19  1  6  0  0  0
  3  4  1  0  0  0  0
  4 20  1  1  0  0  0
  4 10  1  0  0  0  0
  5  6  1  0  0  0  0
  5 14  1  1  0  0  0
  6 21  1  6  0  0  0
  7 13  1  1  0  0  0
  7  6  1  0  0  0  0
  8  9  1  6  0  0  0
  8  7  1  0  0  0  0
 10 16  1  6  0  0  0
 11 10  1  0  0  0  0
 12 17  1  6  0  0  0
 12 11  1  0  0  0  0
 15  9  1  0  0  0  0
 22  8  1  0  0  0  0
 22  1  1  0  0  0  0
M  END
>  <CHROM.1>
-157.00553412,80.01578079,-64.70966896,18.03764810,-9.30785307,26.38016987
2.20331882,0.10337167,-2.62999919

>  <Name>
lig.pdb

>  <RI>
0

>  <Rbt.Current_Directory>
/home/itssahil/PROJECTS/Mol_Feturizer/New_Systems/rnas/5bxk

>  <Rbt.Executable>
rbdock ($Id: //depot/dev/client3/rdock/2013.1/src/exe/rbdock.cxx#4 $)

>  <Rbt.Library>
libRbt.so (2013.1, Build901 2013/11/27)

>  <Rbt.Parameter_File>
/export/apps/rDock/src/rDock_2013.1_src/data/scripts/dock_solv.prm

>  <Rbt.Receptor>
prm/pocket_docking_2.prm

>  <SCORE>
-8.50312

>  <SCORE.INTER>
-6.99805

>  <SCORE.INTER.CONST>
1

>  <SCORE.INTER.POLAR>
0

>  <SCORE.INTER.ROT>
3

>  <SCORE.INTER.SOLV>
20.687

>  <SCORE.INTER.VDW>
-17.161

>  <SCORE.INTER.norm>
-0.318093

>  <SCORE.INTRA>
-1.50507

>  <SCORE.INTRA.DIHEDRAL>
-2.94089

>  <SCORE.INTRA.DIHEDRAL.0>
7.18044

>  <SCORE.INTRA.POLAR>
0

>  <SCORE.INTRA.POLAR.0>
0

>  <SCORE.INTRA.REPUL>
0

>  <SCORE.INTRA.REPUL.0>
0

>  <SCORE.INTRA.SOLV>
0.0616857

>  <SCORE.INTRA.SOLV.lig_0>
-72.0615

>  <SCORE.INTRA.VDW>
-0.0654687

>  <SCORE.INTRA.VDW.0>
-1.54792

>  <SCORE.INTRA.norm>
-0.0684123

>  <SCORE.RESTR>
0

>  <SCORE.RESTR.CAVITY>
0

>  <SCORE.RESTR.norm>
0

>  <SCORE.SYSTEM>
0

>  <SCORE.SYSTEM.CONST>
0

>  <SCORE.SYSTEM.DIHEDRAL>
0

>  <SCORE.SYSTEM.SOLV>
0

>  <SCORE.SYSTEM.norm>
0

>  <SCORE.heavy>
22

>  <SCORE.norm>
-0.386505

>  <RMSD>
0.859

$$$$
lig.pdb
 OpenBabel11021811523D
libRbt.so/2013.1/901 2013/11/27
 22 23  0  0  0  0  0  0  0  0999 V2000
   16.9492   -9.0798   25.7009 C   0  0  1  0  0  0  0  0  0  0  0  0
   19.0418   -8.4443   26.9115 C   0  0  1  0  0  0  0  0  0  0  0  0
   18.7868   -6.9074   27.4234 C   0  0  1  0  0  0  0  0  0  0  0  0
   20.2285   -6.2131   27.6095 C   0  0  2  0  0  0  0  0  0  0  0  0
   15.4425   -9.5440   25.9425 C   0  0  1  0  0  0  0  0  0  0  0  0
   15.3641  -11.1130   26.0949 C   0  0  2  0  0  0  0  0  0  0  0  0
   15.8785  -11.7805   24.7266 C   0  0  1  0  0  0  0  0  0  0  0  0
   17.4316  -11.3982   24.4686 C   0  0  1  0  0  0  0  0  0  0  0  0
   18.0195  -12.0118   23.1677 C   0  0  0  0  0  0  0  0  0  0  0  0
   21.0107   -7.0202   28.7579 C   0  0  1  0  0  0  0  0  0  0  0  0
   21.2292   -8.5263   28.2268 C   0  0  0  0  0  0  0  0  0  0  0  0
   19.8325   -9.2398   27.9777 C   0  0  2  0  0  0  0  0  0  0  0  0
   15.8170  -13.2451   24.7790 F   0  0  0  0  0  0  0  0  0  0  0  0
   14.9743   -8.7947   27.1991 N   0  0  0  0  0  0  0  0  0  0  0  0
   18.0938  -13.4270   23.1692 N   0  0  0  0  0  0  0  0  0  0  0  0
   22.3709   -6.4328   28.9735 N   0  0  0  0  0  0  0  0  0  0  0  0
   20.0162  -10.6002   27.4808 N   0  0  0  0  0  0  0  0  0  0  0  0
   17.8410   -9.1627   26.7403 O   0  0  0  0  0  0  0  0  0  0  0  0
   18.0303   -6.1819   26.3568 O   0  0  0  0  0  0  0  0  0  0  0  0
   20.0217   -4.9119   28.0446 O   0  0  0  0  0  0  0  0  0  0  0  0
   14.2349  -11.3985   26.2643 O   0  0  0  0  0  0  0  0  0  0  0  0
   17.5135   -9.8261   24.4493 O   0  0  0  0  0  0  0  0  0  0  0  0
  1  5  1  0  0  0  0
  1 18  1  1  0  0  0
  2 18  1  1  0  0  0
  2  3  1  0  0  0  0
  2 12  1  0  0  0  0
  3 19  1  6  0  0  0
  3  4  1  0  0  0  0
  4 20  1  1  0  0  0
  4 10  1  0  0  0  0
  5  6  1  0  0  0  0
  5 14  1  1  0  0  0
  6 21  1  6  0  0  0
  7 13  1  1  0  0  0
  7  6  1  0  0  0  0
  8  9  1  6  0  0  0
  8  7  1  0  0  0  0
 10 16  1  6  0  0  0
 11 10  1  0  0  0  0
 12 17  1  6  0  0  0
 12 11  1  0  0  0  0
 15  9  1  0  0  0  0
 22  8  1  0  0  0  0
 22  1  1  0  0  0  0
M  END
>  <CHROM.1>
-157.47393480,77.56915126,-65.01362013,18.04570743,-9.36765456,26.35309298
2.17614161,0.08745322,-2.63345278

>  <Name>
lig.pdb

>  <RI>
0

>  <Rbt.Current_Directory>
/home/itssahil/PROJECTS/Mol_Feturizer/New_Systems/rnas/5bxk

>  <Rbt.Executable>
rbdock ($Id: //depot/dev/client3/rdock/2013.1/src/exe/rbdock.cxx#4 $)

>  <Rbt.Library>
libRbt.so (2013.1, Build901 2013/11/27)

>  <Rbt.Parameter_File>
/export/apps/rDock/src/rDock_2013.1_src/data/scripts/dock_solv.prm

>  <Rbt.Receptor>
prm/pocket_docking_2.prm

>  <SCORE>
-8.46678

>  <SCORE.INTER>
-6.69628

>  <SCORE.INTER.CONST>
1

>  <SCORE.INTER.POLAR>
0

>  <SCORE.INTER.ROT>
3

>  <SCORE.INTER.SOLV>
20.7814

>  <SCORE.INTER.VDW>
-16.9913

>  <SCORE.INTER.norm>
-0.304376

>  <SCORE.INTRA>
-1.77067

>  <SCORE.INTRA.DIHEDRAL>
-3.39309

>  <SCORE.INTRA.DIHEDRAL.0>
7.18044

>  <SCORE.INTRA.POLAR>
0

>  <SCORE.INTRA.POLAR.0>
0

>  <SCORE.INTRA.REPUL>
0

>  <SCORE.INTRA.REPUL.0>
0

>  <SCORE.INTRA.SOLV>
-0.059204

>  <SCORE.INTRA.SOLV.lig_0>
-72.0615

>  <SCORE.INTRA.VDW>
-0.0445198

>  <SCORE.INTRA.VDW.0>
-1.54792

>  <SCORE.INTRA.norm>
-0.0804848

>  <SCORE.RESTR>
0.000170314

>  <SCORE.RESTR.CAVITY>
0.000170314

>  <SCORE.RESTR.norm>
7.74154e-06

>  <SCORE.SYSTEM>
0

>  <SCORE.SYSTEM.CONST>
0

>  <SCORE.SYSTEM.DIHEDRAL>
0

>  <SCORE.SYSTEM.SOLV>
0

>  <SCORE.SYSTEM.norm>
0

>  <SCORE.heavy>
22

>  <SCORE.norm>
-0.384854

>  <RMSD>
0.867

$$$$
lig.pdb
 OpenBabel11021811523D
libRbt.so/2013.1/901 2013/11/27
 22 23  0  0  0  0  0  0  0  0999 V2000
   16.9520   -8.9861   25.6998 C   0  0  1  0  0  0  0  0  0  0  0  0
   19.0502   -8.4016   26.9263 C   0  0  1  0  0  0  0  0  0  0  0  0
   18.8460   -6.8800   27.5026 C   0  0  1  0  0  0  0  0  0  0  0  0
   20.3089   -6.2309   27.6862 C   0  0  2  0  0  0  0  0  0  0  0  0
   15.4305   -9.4081   25.9261 C   0  0  1  0  0  0  0  0  0  0  0  0
   15.3089  -10.9729   26.0931 C   0  0  2  0  0  0  0  0  0  0  0  0
   15.8232  -11.6678   24.7385 C   0  0  1  0  0  0  0  0  0  0  0  0
   17.3891  -11.3291   24.4973 C   0  0  1  0  0  0  0  0  0  0  0  0
   17.9775  -11.9713   23.2105 C   0  0  0  0  0  0  0  0  0  0  0  0
   21.0914   -7.1024   28.7862 C   0  0  1  0  0  0  0  0  0  0  0  0
   21.2596   -8.5916   28.1926 C   0  0  0  0  0  0  0  0  0  0  0  0
   19.8400   -9.2586   27.9445 C   0  0  2  0  0  0  0  0  0  0  0  0
   15.7224  -13.1296   24.8048 F   0  0  0  0  0  0  0  0  0  0  0  0
   14.9660   -8.6338   27.1688 N   0  0  0  0  0  0  0  0  0  0  0  0
   17.9994  -13.3882   23.2206 N   0  0  0  0  0  0  0  0  0  0  0  0
   22.4706   -6.5592   28.9969 N   0  0  0  0  0  0  0  0  0  0  0  0
   19.9780  -10.6026   27.3913 N   0  0  0  0  0  0  0  0  0  0  0  0
   17.8277   -9.0816   26.7517 O   0  0  0  0  0  0  0  0  0  0  0  0
   18.0884   -6.0939   26.4807 O   0  0  0  0  0  0  0  0  0  0  0  0
   20.1450   -4.9429   28.1758 O   0  0  0  0  0  0  0  0  0  0  0  0
   14.1704  -11.2269   26.2504 O   0  0  0  0  0  0  0  0  0  0  0  0
   17.5126   -9.7600   24.4634 O   0  0  0  0  0  0  0  0  0  0  0  0
  1  5  1  0  0  0  0
  1 18  1  1  0  0  0
  2 18  1  1  0  0  0
  2  3  1  0  0  0  0
  2 12  1  0  0  0  0
  3 19  1  6  0  0  0
  3  4  1  0  0  0  0
  4 20  1  1  0  0  0
  4 10  1  0  0  0  0
  5  6  1  0  0  0  0
  5 14  1  1  0  0  0
  6 21  1  6  0  0  0
  7 13  1  1  0  0  0
  7  6  1  0  0  0  0
  8  9  1  6  0  0  0
  8  7  1  0  0  0  0
 10 16  1  6  0  0  0
 11 10  1  0  0  0  0
 12 17  1  6  0  0  0
 12 11  1  0  0  0  0
 15  9  1  0  0  0  0
 22  8  1  0  0  0  0
 22  1  1  0  0  0  0
M  END
>  <CHROM.1>
-158.06070461,81.29981259,-64.28338439,18.04591710,-9.31850269,26.37441798
2.19953196,0.10594833,-2.63396704

>  <Name>
lig.pdb

>  <RI>
0

>  <Rbt.Current_Directory>
/home/itssahil/PROJECTS/Mol_Feturizer/New_Systems/rnas/5bxk

>  <Rbt.Executable>
rbdock ($Id: //depot/dev/client3/rdock/2013.1/src/exe/rbdock.cxx#4 $)

>  <Rbt.Library>
libRbt.so (2013.1, Build901 2013/11/27)

>  <Rbt.Parameter_File>
/export/apps/rDock/src/rDock_2013.1_src/data/scripts/dock_solv.prm

>  <Rbt.Receptor>
prm/pocket_docking_2.prm

>  <SCORE>
-8.49834

>  <SCORE.INTER>
-7.00573

>  <SCORE.INTER.CONST>
1

>  <SCORE.INTER.POLAR>
0

>  <SCORE.INTER.ROT>
3

>  <SCORE.INTER.SOLV>
20.5534

>  <SCORE.INTER.VDW>
-17.1216

>  <SCORE.INTER.norm>
-0.318442

>  <SCORE.INTRA>
-1.49262

>  <SCORE.INTRA.DIHEDRAL>
-2.91768

>  <SCORE.INTRA.DIHEDRAL.0>
7.18044

>  <SCORE.INTRA.POLAR>
0

>  <SCORE.INTRA.POLAR.0>
0

>  <SCORE.INTRA.REPUL>
0

>  <SCORE.INTRA.REPUL.0>
0

>  <SCORE.INTRA.SOLV>
0.0766832

>  <SCORE.INTRA.SOLV.lig_0>
-72.0615

>  <SCORE.INTRA.VDW>
-0.0721179

>  <SCORE.INTRA.VDW.0>
-1.54792

>  <SCORE.INTRA.norm>
-0.0678462

>  <SCORE.RESTR>
0

>  <SCORE.RESTR.CAVITY>
0

>  <SCORE.RESTR.norm>
0

>  <SCORE.SYSTEM>
0

>  <SCORE.SYSTEM.CONST>
0

>  <SCORE.SYSTEM.DIHEDRAL>
0

>  <SCORE.SYSTEM.SOLV>
0

>  <SCORE.SYSTEM.norm>
0

>  <SCORE.heavy>
22

>  <SCORE.norm>
-0.386288

>  <RMSD>
0.867

$$$$
lig.pdb
 OpenBabel11021811523D
libRbt.so/2013.1/901 2013/11/27
 22 23  0  0  0  0  0  0  0  0999 V2000
   16.9674   -8.9846   25.6829 C   0  0  1  0  0  0  0  0  0  0  0  0
   19.0701   -8.4050   26.9039 C   0  0  1  0  0  0  0  0  0  0  0  0
   18.8773   -6.8658   27.4358 C   0  0  1  0  0  0  0  0  0  0  0  0
   20.3455   -6.2277   27.6157 C   0  0  2  0  0  0  0  0  0  0  0  0
   15.4458   -9.4066   25.9089 C   0  0  1  0  0  0  0  0  0  0  0  0
   15.3247  -10.9709   26.0810 C   0  0  2  0  0  0  0  0  0  0  0  0
   15.8409  -11.6700   24.7294 C   0  0  1  0  0  0  0  0  0  0  0  0
   17.4069  -11.3314   24.4888 C   0  0  1  0  0  0  0  0  0  0  0  0
   17.9971  -11.9777   23.2049 C   0  0  0  0  0  0  0  0  0  0  0  0
   21.1079   -7.0767   28.7471 C   0  0  1  0  0  0  0  0  0  0  0  0
   21.2652   -8.5836   28.1966 C   0  0  0  0  0  0  0  0  0  0  0  0
   19.8406   -9.2418   27.9531 C   0  0  2  0  0  0  0  0  0  0  0  0
   15.7407  -13.1317   24.8003 F   0  0  0  0  0  0  0  0  0  0  0  0
   14.9795   -8.6283   27.1484 N   0  0  0  0  0  0  0  0  0  0  0  0
   18.0089  -13.3947   23.2148 N   0  0  0  0  0  0  0  0  0  0  0  0
   22.4909   -6.5428   28.9561 N   0  0  0  0  0  0  0  0  0  0  0  0
   19.9690  -10.6020   27.4388 N   0  0  0  0  0  0  0  0  0  0  0  0
   17.8419   -9.0762   26.7362 O   0  0  0  0  0  0  0  0  0  0  0  0
   18.1383   -6.1002   26.3851 O   0  0  0  0  0  0  0  0  0  0  0  0
   20.1913   -4.9249   28.0678 O   0  0  0  0  0  0  0  0  0  0  0  0
   14.1862  -11.2249   26.2378 O   0  0  0  0  0  0  0  0  0  0  0  0
   17.5298   -9.7624   24.4498 O   0  0  0  0  0  0  0  0  0  0  0  0
  1  5  1  0  0  0  0
  1 18  1  1  0  0  0
  2 18  1  1  0  0  0
  2  3  1  0  0  0  0
  2 12  1  0  0  0  0
  3 19  1  6  0  0  0
  3  4  1  0  0  0  0
  4 20  1  1  0  0  0
  4 10  1  0  0  0  0
  5  6  1  0  0  0  0
  5 14  1  1  0  0  0
  6 21  1  6  0  0  0
  7 13  1  1  0  0  0
  7  6  1  0  0  0  0
  8  9  1  6  0  0  0
  8  7  1  0  0  0  0
 10 16  1  6  0  0  0
 11 10  1  0  0  0  0
 12 17  1  6  0  0  0
 12 11  1  0  0  0  0
 15  9  1  0  0  0  0
 22  8  1  0  0  0  0
 22  1  1  0  0  0  0
M  END
>  <CHROM.1>
-158.73739752,80.18606980,-63.75704413,18.06478145,-9.31461775,26.35013414
2.20292537,0.10850446,-2.64373804

>  <Name>
lig.pdb

>  <RI>
0

>  <Rbt.Current_Directory>
/home/itssahil/PROJECTS/Mol_Feturizer/New_Systems/rnas/5bxk

>  <Rbt.Executable>
rbdock ($Id: //depot/dev/client3/rdock/2013.1/src/exe/rbdock.cxx#4 $)

>  <Rbt.Library>
libRbt.so (2013.1, Build901 2013/11/27)

>  <Rbt.Parameter_File>
/export/apps/rDock/src/rDock_2013.1_src/data/scripts/dock_solv.prm

>  <Rbt.Receptor>
prm/pocket_docking_2.prm

>  <SCORE>
-8.47133

>  <SCORE.INTER>
-6.80549

>  <SCORE.INTER.CONST>
1

>  <SCORE.INTER.POLAR>
0

>  <SCORE.INTER.ROT>
3

>  <SCORE.INTER.SOLV>
20.8725

>  <SCORE.INTER.VDW>
-17.0945

>  <SCORE.INTER.norm>
-0.30934

>  <SCORE.INTRA>
-1.66584

>  <SCORE.INTRA.DIHEDRAL>
-3.2296

>  <SCORE.INTRA.DIHEDRAL.0>
7.18044

>  <SCORE.INTRA.POLAR>
0

>  <SCORE.INTRA.POLAR.0>
0

>  <SCORE.INTRA.REPUL>
0

>  <SCORE.INTRA.REPUL.0>
0

>  <SCORE.INTRA.SOLV>
0.0128667

>  <SCORE.INTRA.SOLV.lig_0>
-72.0615

>  <SCORE.INTRA.VDW>
-0.0574696

>  <SCORE.INTRA.VDW.0>
-1.54792

>  <SCORE.INTRA.norm>
-0.0757198

>  <SCORE.RESTR>
0

>  <SCORE.RESTR.CAVITY>
0

>  <SCORE.RESTR.norm>
0

>  <SCORE.SYSTEM>
0

>  <SCORE.SYSTEM.CONST>
0

>  <SCORE.SYSTEM.DIHEDRAL>
0

>  <SCORE.SYSTEM.SOLV>
0

>  <SCORE.SYSTEM.norm>
0

>  <SCORE.heavy>
22

>  <SCORE.norm>
-0.38506

>  <RMSD>
0.869

$$$$
lig.pdb
 OpenBabel11021811523D
libRbt.so/2013.1/901 2013/11/27
 22 23  0  0  0  0  0  0  0  0999 V2000
   16.8727   -9.5143   25.1919 C   0  0  1  0  0  0  0  0  0  0  0  0
   18.7595   -8.4616   26.4491 C   0  0  1  0  0  0  0  0  0  0  0  0
   18.1303   -6.9622   26.6619 C   0  0  1  0  0  0  0  0  0  0  0  0
   19.3582   -5.9554   26.9330 C   0  0  2  0  0  0  0  0  0  0  0  0
   15.3118   -9.5056   25.5196 C   0  0  1  0  0  0  0  0  0  0  0  0
   14.8813  -10.8629   26.2005 C   0  0  2  0  0  0  0  0  0  0  0  0
   15.1676  -12.0601   25.1676 C   0  0  1  0  0  0  0  0  0  0  0  0
   16.7541  -12.1598   24.8545 C   0  0  1  0  0  0  0  0  0  0  0  0
   17.1272  -13.3017   23.8690 C   0  0  0  0  0  0  0  0  0  0  0  0
   20.0722   -6.4176   28.2964 C   0  0  1  0  0  0  0  0  0  0  0  0
   20.6635   -7.8975   28.0546 C   0  0  0  0  0  0  0  0  0  0  0  0
   19.4935   -8.9215   27.7314 C   0  0  2  0  0  0  0  0  0  0  0  0
   14.7731  -13.3607   25.7193 F   0  0  0  0  0  0  0  0  0  0  0  0
   15.0843   -8.2830   26.4215 N   0  0  0  0  0  0  0  0  0  0  0  0
   18.5203  -13.4842   23.6844 N   0  0  0  0  0  0  0  0  0  0  0  0
   21.2367   -5.5279   28.6025 N   0  0  0  0  0  0  0  0  0  0  0  0
   20.0174  -10.2634   27.4943 N   0  0  0  0  0  0  0  0  0  0  0  0
   17.7664   -9.4379   26.2302 O   0  0  0  0  0  0  0  0  0  0  0  0
   17.4428   -6.5628   25.3953 O   0  0  0  0  0  0  0  0  0  0  0  0
   18.8339   -4.6838   27.1163 O   0  0  0  0  0  0  0  0  0  0  0  0
   13.7253  -10.8036   26.4137 O   0  0  0  0  0  0  0  0  0  0  0  0
   17.1945  -10.7546   24.2975 O   0  0  0  0  0  0  0  0  0  0  0  0
  1  5  1  0  0  0  0
  1 18  1  1  0  0  0
  2 18  1  1  0  0  0
  2  3  1  0  0  0  0
  2 12  1  0  0  0  0
  3 19  1  6  0  0  0
  3  4  1  0  0  0  0
  4 20  1  1  0  0  0
  4 10  1  0  0  0  0
  5  6  1  0  0  0  0
  5 14  1  1  0  0  0
  6 21  1  6  0  0  0
  7 13  1  1  0  0  0
  7  6  1  0  0  0  0
  8  9  1  6  0  0  0
  8  7  1  0  0  0  0
 10 16  1  6  0  0  0
 11 10  1  0  0  0  0
 12 17  1  6  0  0  0
 12 11  1  0  0  0  0
 15  9  1  0  0  0  0
 22  8  1  0  0  0  0
 22  1  1  0  0  0  0
M  END
>  <CHROM.1>
-121.15566137,62.49880635,-174.25201627,17.53898558,-9.37068585,26.17502837
2.12535313,0.13225530,-2.82191388

>  <Name>
lig.pdb

>  <RI>
0

>  <Rbt.Current_Directory>
/home/itssahil/PROJECTS/Mol_Feturizer/New_Systems/rnas/5bxk

>  <Rbt.Executable>
rbdock ($Id: //depot/dev/client3/rdock/2013.1/src/exe/rbdock.cxx#4 $)

>  <Rbt.Library>
libRbt.so (2013.1, Build901 2013/11/27)

>  <Rbt.Parameter_File>
/export/apps/rDock/src/rDock_2013.1_src/data/scripts/dock_solv.prm

>  <Rbt.Receptor>
prm/pocket_docking_2.prm

>  <SCORE>
-7.50457

>  <SCORE.INTER>
-7.50149

>  <SCORE.INTER.CONST>
1

>  <SCORE.INTER.POLAR>
0

>  <SCORE.INTER.ROT>
3

>  <SCORE.INTER.SOLV>
19.7785

>  <SCORE.INTER.VDW>
-17.1938

>  <SCORE.INTER.norm>
-0.340977

>  <SCORE.INTRA>
-0.00307974

>  <SCORE.INTRA.DIHEDRAL>
0.0304312

>  <SCORE.INTRA.DIHEDRAL.0>
7.18044

>  <SCORE.INTRA.POLAR>
0

>  <SCORE.INTRA.POLAR.0>
0

>  <SCORE.INTRA.REPUL>
0

>  <SCORE.INTRA.REPUL.0>
0

>  <SCORE.INTRA.SOLV>
0.0193658

>  <SCORE.INTRA.SOLV.lig_0>
-72.0615

>  <SCORE.INTRA.VDW>
-0.0279782

>  <SCORE.INTRA.VDW.0>
-1.54792

>  <SCORE.INTRA.norm>
-0.000139988

>  <SCORE.RESTR>
0

>  <SCORE.RESTR.CAVITY>
0

>  <SCORE.RESTR.norm>
0

>  <SCORE.SYSTEM>
0

>  <SCORE.SYSTEM.CONST>
0

>  <SCORE.SYSTEM.DIHEDRAL>
0

>  <SCORE.SYSTEM.SOLV>
0

>  <SCORE.SYSTEM.norm>
0

>  <SCORE.heavy>
22

>  <SCORE.norm>
-0.341117

>  <RMSD>
0.884

$$$$
lig.pdb
 OpenBabel11021811523D
libRbt.so/2013.1/901 2013/11/27
 22 23  0  0  0  0  0  0  0  0999 V2000
   16.8320   -9.5058   25.2261 C   0  0  1  0  0  0  0  0  0  0  0  0
   18.7441   -8.4615   26.4516 C   0  0  1  0  0  0  0  0  0  0  0  0
   18.1202   -6.9603   26.6668 C   0  0  1  0  0  0  0  0  0  0  0  0
   19.3530   -5.9551   26.9217 C   0  0  2  0  0  0  0  0  0  0  0  0
   15.2784   -9.4441   25.5820 C   0  0  1  0  0  0  0  0  0  0  0  0
   14.8207  -10.7747   26.2971 C   0  0  2  0  0  0  0  0  0  0  0  0
   15.0520  -11.9994   25.2827 C   0  0  1  0  0  0  0  0  0  0  0  0
   16.6287  -12.1525   24.9429 C   0  0  1  0  0  0  0  0  0  0  0  0
   16.9493  -13.3237   23.9735 C   0  0  0  0  0  0  0  0  0  0  0  0
   20.0808   -6.4147   28.2786 C   0  0  1  0  0  0  0  0  0  0  0  0
   20.6665   -7.8965   28.0348 C   0  0  0  0  0  0  0  0  0  0  0  0
   19.4911   -8.9192   27.7273 C   0  0  2  0  0  0  0  0  0  0  0  0
   14.6296  -13.2768   25.8669 F   0  0  0  0  0  0  0  0  0  0  0  0
   15.1042   -8.1982   26.4636 N   0  0  0  0  0  0  0  0  0  0  0  0
   18.3294  -13.5008   23.7050 N   0  0  0  0  0  0  0  0  0  0  0  0
   21.2503   -5.5264   28.5694 N   0  0  0  0  0  0  0  0  0  0  0  0
   20.0097  -10.2627   27.4884 N   0  0  0  0  0  0  0  0  0  0  0  0
   17.7468   -9.4365   26.2464 O   0  0  0  0  0  0  0  0  0  0  0  0
   17.4198   -6.5632   25.4066 O   0  0  0  0  0  0  0  0  0  0  0  0
   18.8332   -4.6819   27.1068 O   0  0  0  0  0  0  0  0  0  0  0  0
   13.6712  -10.6767   26.5299 O   0  0  0  0  0  0  0  0  0  0  0  0
   17.1001  -10.7721   24.3506 O   0  0  0  0  0  0  0  0  0  0  0  0
  1  5  1  0  0  0  0
  1 18  1  1  0  0  0
  2 18  1  1  0  0  0
  2  3  1  0  0  0  0
  2 12  1  0  0  0  0
  3 19  1  6  0  0  0
  3  4  1  0  0  0  0
  4 20  1  1  0  0  0
  4 10  1  0  0  0  0
  5  6  1  0  0  0  0
  5 14  1  1  0  0  0
  6 21  1  6  0  0  0
  7 13  1  1  0  0  0
  7  6  1  0  0  0  0
  8  9  1  6  0  0  0
  8  7  1  0  0  0  0
 10 16  1  6  0  0  0
 11 10  1  0  0  0  0
 12 17  1  6  0  0  0
 12 11  1  0  0  0  0
 15  9  1  0  0  0  0
 22  8  1  0  0  0  0
 22  1  1  0  0  0  0
M  END
>  <CHROM.1>
-118.86830758,61.69518399,-177.82089954,17.48865649,-9.34794205,26.21380786
2.14261880,0.12269913,-2.83149618

>  <Name>
lig.pdb

>  <RI>
0

>  <Rbt.Current_Directory>
/home/itssahil/PROJECTS/Mol_Feturizer/New_Systems/rnas/5bxk

>  <Rbt.Executable>
rbdock ($Id: //depot/dev/client3/rdock/2013.1/src/exe/rbdock.cxx#4 $)

>  <Rbt.Library>
libRbt.so (2013.1, Build901 2013/11/27)

>  <Rbt.Parameter_File>
/export/apps/rDock/src/rDock_2013.1_src/data/scripts/dock_solv.prm

>  <Rbt.Receptor>
prm/pocket_docking_2.prm

>  <SCORE>
-7.49527

>  <SCORE.INTER>
-7.50618

>  <SCORE.INTER.CONST>
1

>  <SCORE.INTER.POLAR>
0

>  <SCORE.INTER.ROT>
3

>  <SCORE.INTER.SOLV>
19.8308

>  <SCORE.INTER.VDW>
-17.2144

>  <SCORE.INTER.norm>
-0.34119

>  <SCORE.INTRA>
0.0109148

>  <SCORE.INTRA.DIHEDRAL>
-0.0880896

>  <SCORE.INTRA.DIHEDRAL.0>
7.18044

>  <SCORE.INTRA.POLAR>
0

>  <SCORE.INTRA.POLAR.0>
0

>  <SCORE.INTRA.REPUL>
0

>  <SCORE.INTRA.REPUL.0>
0

>  <SCORE.INTRA.SOLV>
0.158501

>  <SCORE.INTRA.SOLV.lig_0>
-72.0615

>  <SCORE.INTRA.VDW>
-0.0242911

>  <SCORE.INTRA.VDW.0>
-1.54792

>  <SCORE.INTRA.norm>
0.000496126

>  <SCORE.RESTR>
0

>  <SCORE.RESTR.CAVITY>
0

>  <SCORE.RESTR.norm>
0

>  <SCORE.SYSTEM>
0

>  <SCORE.SYSTEM.CONST>
0

>  <SCORE.SYSTEM.DIHEDRAL>
0

>  <SCORE.SYSTEM.SOLV>
0

>  <SCORE.SYSTEM.norm>
0

>  <SCORE.heavy>
22

>  <SCORE.norm>
-0.340694

>  <RMSD>
0.894

$$$$
lig.pdb
 OpenBabel11021811523D
libRbt.so/2013.1/901 2013/11/27
 22 23  0  0  0  0  0  0  0  0999 V2000
   16.8286   -9.5209   25.2321 C   0  0  1  0  0  0  0  0  0  0  0  0
   18.7512   -8.5140   26.4723 C   0  0  1  0  0  0  0  0  0  0  0  0
   18.1509   -7.0009   26.6703 C   0  0  1  0  0  0  0  0  0  0  0  0
   19.3973   -6.0163   26.9392 C   0  0  2  0  0  0  0  0  0  0  0  0
   15.2739   -9.4631   25.5838 C   0  0  1  0  0  0  0  0  0  0  0  0
   14.8116  -10.8060   26.2724 C   0  0  2  0  0  0  0  0  0  0  0  0
   15.0443  -12.0120   25.2362 C   0  0  1  0  0  0  0  0  0  0  0  0
   16.6219  -12.1615   24.8989 C   0  0  1  0  0  0  0  0  0  0  0  0
   16.9438  -13.3150   23.9088 C   0  0  0  0  0  0  0  0  0  0  0  0
   20.0958   -6.4816   28.3095 C   0  0  1  0  0  0  0  0  0  0  0  0
   20.6588   -7.9748   28.0822 C   0  0  0  0  0  0  0  0  0  0  0  0
   19.4703   -8.9781   27.7617 C   0  0  2  0  0  0  0  0  0  0  0  0
   14.6177  -13.2994   25.7950 F   0  0  0  0  0  0  0  0  0  0  0  0
   15.0988   -8.2337   26.4879 N   0  0  0  0  0  0  0  0  0  0  0  0
   18.3262  -13.5095   23.6657 N   0  0  0  0  0  0  0  0  0  0  0  0
   21.2764   -5.6126   28.6139 N   0  0  0  0  0  0  0  0  0  0  0  0
   19.9686  -10.3318   27.5375 N   0  0  0  0  0  0  0  0  0  0  0  0
   17.7401   -9.4723   26.2565 O   0  0  0  0  0  0  0  0  0  0  0  0
   17.4770   -6.5981   25.3975 O   0  0  0  0  0  0  0  0  0  0  0  0
   18.8974   -4.7332   27.1100 O   0  0  0  0  0  0  0  0  0  0  0  0
   13.6614  -10.7104   26.5032 O   0  0  0  0  0  0  0  0  0  0  0  0
   17.0976  -10.7711   24.3340 O   0  0  0  0  0  0  0  0  0  0  0  0
  1  5  1  0  0  0  0
  1 18  1  1  0  0  0
  2 18  1  1  0  0  0
  2  3  1  0  0  0  0
  2 12  1  0  0  0  0
  3 19  1  6  0  0  0
  3  4  1  0  0  0  0
  4 20  1  1  0  0  0
  4 10  1  0  0  0  0
  5  6  1  0  0  0  0
  5 14  1  1  0  0  0
  6 21  1  6  0  0  0
  7 13  1  1  0  0  0
  7  6  1  0  0  0  0
  8  9  1  6  0  0  0
  8  7  1  0  0  0  0
 10 16  1  6  0  0  0
 11 10  1  0  0  0  0
 12 17  1  6  0  0  0
 12 11  1  0  0  0  0
 15  9  1  0  0  0  0
 22  8  1  0  0  0  0
 22  1  1  0  0  0  0
M  END
>  <CHROM.1>
-119.91092123,60.75671436,-176.42835646,17.49336595,-9.38450898,26.21017939
2.14971064,0.12933332,-2.82403339

>  <Name>
lig.pdb

>  <RI>
0

>  <Rbt.Current_Directory>
/home/itssahil/PROJECTS/Mol_Feturizer/New_Systems/rnas/5bxk

>  <Rbt.Executable>
rbdock ($Id: //depot/dev/client3/rdock/2013.1/src/exe/rbdock.cxx#4 $)

>  <Rbt.Library>
libRbt.so (2013.1, Build901 2013/11/27)

>  <Rbt.Parameter_File>
/export/apps/rDock/src/rDock_2013.1_src/data/scripts/dock_solv.prm

>  <Rbt.Receptor>
prm/pocket_docking_2.prm

>  <SCORE>
-7.44842

>  <SCORE.INTER>
-7.43582

>  <SCORE.INTER.CONST>
1

>  <SCORE.INTER.POLAR>
0

>  <SCORE.INTER.ROT>
3

>  <SCORE.INTER.SOLV>
19.8671

>  <SCORE.INTER.VDW>
-17.1796

>  <SCORE.INTER.norm>
-0.337992

>  <SCORE.INTRA>
-0.0126024

>  <SCORE.INTRA.DIHEDRAL>
-0.064252

>  <SCORE.INTRA.DIHEDRAL.0>
7.18044

>  <SCORE.INTRA.POLAR>
0

>  <SCORE.INTRA.POLAR.0>
0

>  <SCORE.INTRA.REPUL>
0

>  <SCORE.INTRA.REPUL.0>
0

>  <SCORE.INTRA.SOLV>
0.0607928

>  <SCORE.INTRA.SOLV.lig_0>
-72.0615

>  <SCORE.INTRA.VDW>
-0.0108728

>  <SCORE.INTRA.VDW.0>
-1.54792

>  <SCORE.INTRA.norm>
-0.000572836

>  <SCORE.RESTR>
0

>  <SCORE.RESTR.CAVITY>
0

>  <SCORE.RESTR.norm>
0

>  <SCORE.SYSTEM>
0

>  <SCORE.SYSTEM.CONST>
0

>  <SCORE.SYSTEM.DIHEDRAL>
0

>  <SCORE.SYSTEM.SOLV>
0

>  <SCORE.SYSTEM.norm>
0

>  <SCORE.heavy>
22

>  <SCORE.norm>
-0.338565

>  <RMSD>
0.901

$$$$
lig.pdb
 OpenBabel11021811523D
libRbt.so/2013.1/901 2013/11/27
 22 23  0  0  0  0  0  0  0  0999 V2000
   16.8175   -9.4595   25.1985 C   0  0  1  0  0  0  0  0  0  0  0  0
   18.6989   -8.3711   26.4331 C   0  0  1  0  0  0  0  0  0  0  0  0
   18.0517   -6.8745   26.6080 C   0  0  1  0  0  0  0  0  0  0  0  0
   19.2664   -5.8482   26.8654 C   0  0  2  0  0  0  0  0  0  0  0  0
   15.2590   -9.4028   25.5329 C   0  0  1  0  0  0  0  0  0  0  0  0
   14.8020  -10.7227   26.2681 C   0  0  2  0  0  0  0  0  0  0  0  0
   15.0557  -11.9652   25.2812 C   0  0  1  0  0  0  0  0  0  0  0  0
   16.6378  -12.1127   24.9649 C   0  0  1  0  0  0  0  0  0  0  0  0
   16.9798  -13.3002   24.0230 C   0  0  0  0  0  0  0  0  0  0  0  0
   19.9754   -6.2720   28.2437 C   0  0  1  0  0  0  0  0  0  0  0  0
   20.5848   -7.7503   28.0391 C   0  0  0  0  0  0  0  0  0  0  0  0
   19.4286   -8.7942   27.7305 C   0  0  2  0  0  0  0  0  0  0  0  0
   14.6352  -13.2342   25.8849 F   0  0  0  0  0  0  0  0  0  0  0  0
   15.0639   -8.1413   26.3875 N   0  0  0  0  0  0  0  0  0  0  0  0
   18.3621  -13.4521   23.7502 N   0  0  0  0  0  0  0  0  0  0  0  0
   21.1278   -5.3628   28.5381 N   0  0  0  0  0  0  0  0  0  0  0  0
   19.9690  -10.1350   27.5270 N   0  0  0  0  0  0  0  0  0  0  0  0
   17.7183   -9.3631   26.2289 O   0  0  0  0  0  0  0  0  0  0  0  0
   17.3691   -6.5111   25.3281 O   0  0  0  0  0  0  0  0  0  0  0  0
   18.7267   -4.5788   27.0165 O   0  0  0  0  0  0  0  0  0  0  0  0
   13.6488  -10.6291   26.4841 O   0  0  0  0  0  0  0  0  0  0  0  0
   17.1065  -10.7406   24.3517 O   0  0  0  0  0  0  0  0  0  0  0  0
  1  5  1  0  0  0  0
  1 18  1  1  0  0  0
  2 18  1  1  0  0  0
  2  3  1  0  0  0  0
  2 12  1  0  0  0  0
  3 19  1  6  0  0  0
  3  4  1  0  0  0  0
  4 20  1  1  0  0  0
  4 10  1  0  0  0  0
  5  6  1  0  0  0  0
  5 14  1  1  0  0  0
  6 21  1  6  0  0  0
  7 13  1  1  0  0  0
  7  6  1  0  0  0  0
  8  9  1  6  0  0  0
  8  7  1  0  0  0  0
 10 16  1  6  0  0  0
 11 10  1  0  0  0  0
 12 17  1  6  0  0  0
 12 11  1  0  0  0  0
 15  9  1  0  0  0  0
 22  8  1  0  0  0  0
 22  1  1  0  0  0  0
M  END
>  <CHROM.1>
-118.34956140,61.24095298,-179.26191527,17.45179625,-9.27252806,26.19404937
2.12731055,0.13249304,-2.84681521

>  <Name>
lig.pdb

>  <RI>
0

>  <Rbt.Current_Directory>
/home/itssahil/PROJECTS/Mol_Feturizer/New_Systems/rnas/5bxk

>  <Rbt.Executable>
rbdock ($Id: //depot/dev/client3/rdock/2013.1/src/exe/rbdock.cxx#4 $)

>  <Rbt.Library>
libRbt.so (2013.1, Build901 2013/11/27)

>  <Rbt.Parameter_File>
/export/apps/rDock/src/rDock_2013.1_src/data/scripts/dock_solv.prm

>  <Rbt.Receptor>
prm/pocket_docking_2.prm

>  <SCORE>
-7.48393

>  <SCORE.INTER>
-7.50156

>  <SCORE.INTER.CONST>
1

>  <SCORE.INTER.POLAR>
0

>  <SCORE.INTER.ROT>
3

>  <SCORE.INTER.SOLV>
19.6411

>  <SCORE.INTER.VDW>
-17.1481

>  <SCORE.INTER.norm>
-0.34098

>  <SCORE.INTRA>
0.0176313

>  <SCORE.INTRA.DIHEDRAL>
-0.117

>  <SCORE.INTRA.DIHEDRAL.0>
7.18044

>  <SCORE.INTRA.POLAR>
0

>  <SCORE.INTRA.POLAR.0>
0

>  <SCORE.INTRA.REPUL>
0

>  <SCORE.INTRA.REPUL.0>
0

>  <SCORE.INTRA.SOLV>
0.190577

>  <SCORE.INTRA.SOLV.lig_0>
-72.0615

>  <SCORE.INTRA.VDW>
-0.019157

>  <SCORE.INTRA.VDW.0>
-1.54792

>  <SCORE.INTRA.norm>
0.000801422

>  <SCORE.RESTR>
0

>  <SCORE.RESTR.CAVITY>
0

>  <SCORE.RESTR.norm>
0

>  <SCORE.SYSTEM>
0

>  <SCORE.SYSTEM.CONST>
0

>  <SCORE.SYSTEM.DIHEDRAL>
0

>  <SCORE.SYSTEM.SOLV>
0

>  <SCORE.SYSTEM.norm>
0

>  <SCORE.heavy>
22

>  <SCORE.norm>
-0.340178

>  <RMSD>
0.902

$$$$
lig.pdb
 OpenBabel11021811523D
libRbt.so/2013.1/901 2013/11/27
 22 23  0  0  0  0  0  0  0  0999 V2000
   16.9025   -9.5696   25.1982 C   0  0  1  0  0  0  0  0  0  0  0  0
   18.8019   -8.5430   26.4579 C   0  0  1  0  0  0  0  0  0  0  0  0
   18.1720   -7.0446   26.6750 C   0  0  1  0  0  0  0  0  0  0  0  0
   19.3984   -6.0401   26.9612 C   0  0  2  0  0  0  0  0  0  0  0  0
   15.3461   -9.5314   25.5449 C   0  0  1  0  0  0  0  0  0  0  0  0
   14.8966  -10.8840   26.2231 C   0  0  2  0  0  0  0  0  0  0  0  0
   15.1462  -12.0804   25.1798 C   0  0  1  0  0  0  0  0  0  0  0  0
   16.7265  -12.2100   24.8469 C   0  0  1  0  0  0  0  0  0  0  0  0
   17.0646  -13.3533   23.8504 C   0  0  0  0  0  0  0  0  0  0  0  0
   20.1021   -6.5107   28.3270 C   0  0  1  0  0  0  0  0  0  0  0  0
   20.6944   -7.9895   28.0808 C   0  0  0  0  0  0  0  0  0  0  0  0
   19.5263   -9.0110   27.7429 C   0  0  2  0  0  0  0  0  0  0  0  0
   14.7322  -13.3761   25.7287 F   0  0  0  0  0  0  0  0  0  0  0  0
   15.1543   -8.3100   26.4565 N   0  0  0  0  0  0  0  0  0  0  0  0
   18.4509  -13.5477   23.6306 N   0  0  0  0  0  0  0  0  0  0  0  0
   21.2648   -5.6235   28.6469 N   0  0  0  0  0  0  0  0  0  0  0  0
   20.0512  -10.3516   27.5017 N   0  0  0  0  0  0  0  0  0  0  0  0
   17.8100   -9.5175   26.2260 O   0  0  0  0  0  0  0  0  0  0  0  0
   17.4940   -6.6373   25.4059 O   0  0  0  0  0  0  0  0  0  0  0  0
   18.8734   -4.7693   27.1481 O   0  0  0  0  0  0  0  0  0  0  0  0
   13.7446  -10.8027   26.4506 O   0  0  0  0  0  0  0  0  0  0  0  0
   17.1885  -10.8107   24.2928 O   0  0  0  0  0  0  0  0  0  0  0  0
  1  5  1  0  0  0  0
  1 18  1  1  0  0  0
  2 18  1  1  0  0  0
  2  3  1  0  0  0  0
  2 12  1  0  0  0  0
  3 19  1  6  0  0  0
  3  4  1  0  0  0  0
  4 20  1  1  0  0  0
  4 10  1  0  0  0  0
  5  6  1  0  0  0  0
  5 14  1  1  0  0  0
  6 21  1  6  0  0  0
  7 13  1  1  0  0  0
  7  6  1  0  0  0  0
  8  9  1  6  0  0  0
  8  7  1  0  0  0  0
 10 16  1  6  0  0  0
 11 10  1  0  0  0  0
 12 17  1  6  0  0  0
 12 11  1  0  0  0  0
 15  9  1  0  0  0  0
 22  8  1  0  0  0  0
 22  1  1  0  0  0  0
M  END
>  <CHROM.1>
-119.29534148,60.76545771,-175.26701131,17.55445408,-9.43045312,26.18728958
2.13333295,0.13080659,-2.81376348

>  <Name>
lig.pdb

>  <RI>
0

>  <Rbt.Current_Directory>
/home/itssahil/PROJECTS/Mol_Feturizer/New_Systems/rnas/5bxk

>  <Rbt.Executable>
rbdock ($Id: //depot/dev/client3/rdock/2013.1/src/exe/rbdock.cxx#4 $)

>  <Rbt.Library>
libRbt.so (2013.1, Build901 2013/11/27)

>  <Rbt.Parameter_File>
/export/apps/rDock/src/rDock_2013.1_src/data/scripts/dock_solv.prm

>  <Rbt.Receptor>
prm/pocket_docking_2.prm

>  <SCORE>
-7.53956

>  <SCORE.INTER>
-7.55115

>  <SCORE.INTER.CONST>
1

>  <SCORE.INTER.POLAR>
0

>  <SCORE.INTER.ROT>
3

>  <SCORE.INTER.SOLV>
19.8215

>  <SCORE.INTER.VDW>
-17.2413

>  <SCORE.INTER.norm>
-0.343234

>  <SCORE.INTRA>
0.0115926

>  <SCORE.INTRA.DIHEDRAL>
-0.0316627

>  <SCORE.INTRA.DIHEDRAL.0>
7.18044

>  <SCORE.INTRA.POLAR>
0

>  <SCORE.INTRA.POLAR.0>
0

>  <SCORE.INTRA.REPUL>
0

>  <SCORE.INTRA.REPUL.0>
0

>  <SCORE.INTRA.SOLV>
0.0800633

>  <SCORE.INTRA.SOLV.lig_0>
-72.0615

>  <SCORE.INTRA.VDW>
-0.0126077

>  <SCORE.INTRA.VDW.0>
-1.54792

>  <SCORE.INTRA.norm>
0.000526936

>  <SCORE.RESTR>
0

>  <SCORE.RESTR.CAVITY>
0

>  <SCORE.RESTR.norm>
0

>  <SCORE.SYSTEM>
0

>  <SCORE.SYSTEM.CONST>
0

>  <SCORE.SYSTEM.DIHEDRAL>
0

>  <SCORE.SYSTEM.SOLV>
0

>  <SCORE.SYSTEM.norm>
0

>  <SCORE.heavy>
22

>  <SCORE.norm>
-0.342707

>  <RMSD>
0.904

$$$$
lig.pdb
 OpenBabel11021811523D
libRbt.so/2013.1/901 2013/11/27
 22 23  0  0  0  0  0  0  0  0999 V2000
   16.8068   -9.4836   25.2174 C   0  0  1  0  0  0  0  0  0  0  0  0
   18.6947   -8.4076   26.4529 C   0  0  1  0  0  0  0  0  0  0  0  0
   18.0536   -6.9103   26.6431 C   0  0  1  0  0  0  0  0  0  0  0  0
   19.2732   -5.8901   26.9015 C   0  0  2  0  0  0  0  0  0  0  0  0
   15.2489   -9.4363   25.5558 C   0  0  1  0  0  0  0  0  0  0  0  0
   14.7985  -10.7656   26.2780 C   0  0  2  0  0  0  0  0  0  0  0  0
   15.0546  -11.9966   25.2774 C   0  0  1  0  0  0  0  0  0  0  0  0
   16.6365  -12.1348   24.9560 C   0  0  1  0  0  0  0  0  0  0  0  0
   16.9808  -13.3110   24.0007 C   0  0  0  0  0  0  0  0  0  0  0  0
   19.9886   -6.3269   28.2724 C   0  0  1  0  0  0  0  0  0  0  0  0
   20.5918   -7.8055   28.0529 C   0  0  0  0  0  0  0  0  0  0  0  0
   19.4303   -8.8432   27.7429 C   0  0  2  0  0  0  0  0  0  0  0  0
   14.6403  -13.2735   25.8686 F   0  0  0  0  0  0  0  0  0  0  0  0
   15.0511   -8.1847   26.4242 N   0  0  0  0  0  0  0  0  0  0  0  0
   18.3686  -13.5153   23.7998 N   0  0  0  0  0  0  0  0  0  0  0  0
   21.1457   -5.4238   28.5673 N   0  0  0  0  0  0  0  0  0  0  0  0
   19.9650  -10.1842   27.5259 N   0  0  0  0  0  0  0  0  0  0  0  0
   17.7097   -9.3947   26.2467 O   0  0  0  0  0  0  0  0  0  0  0  0
   17.3649   -6.5346   25.3699 O   0  0  0  0  0  0  0  0  0  0  0  0
   18.7387   -4.6201   27.0655 O   0  0  0  0  0  0  0  0  0  0  0  0
   13.6454  -10.6786   26.4976 O   0  0  0  0  0  0  0  0  0  0  0  0
   17.0987  -10.7545   24.3563 O   0  0  0  0  0  0  0  0  0  0  0  0
  1  5  1  0  0  0  0
  1 18  1  1  0  0  0
  2 18  1  1  0  0  0
  2  3  1  0  0  0  0
  2 12  1  0  0  0  0
  3 19  1  6  0  0  0
  3  4  1  0  0  0  0
  4 20  1  1  0  0  0
  4 10  1  0  0  0  0
  5  6  1  0  0  0  0
  5 14  1  1  0  0  0
  6 21  1  6  0  0  0
  7 13  1  1  0  0  0
  7  6  1  0  0  0  0
  8  9  1  6  0  0  0
  8  7  1  0  0  0  0
 10 16  1  6  0  0  0
 11 10  1  0  0  0  0
 12 17  1  6  0  0  0
 12 11  1  0  0  0  0
 15  9  1  0  0  0  0
 22  8  1  0  0  0  0
 22  1  1  0  0  0  0
M  END
>  <CHROM.1>
-118.95717579,61.57873968,-174.91876844,17.45187741,-9.31118286,26.21137341
2.12868108,0.13326254,-2.84300622

>  <Name>
lig.pdb

>  <RI>
0

>  <Rbt.Current_Directory>
/home/itssahil/PROJECTS/Mol_Feturizer/New_Systems/rnas/5bxk

>  <Rbt.Executable>
rbdock ($Id: //depot/dev/client3/rdock/2013.1/src/exe/rbdock.cxx#4 $)

>  <Rbt.Library>
libRbt.so (2013.1, Build901 2013/11/27)

>  <Rbt.Parameter_File>
/export/apps/rDock/src/rDock_2013.1_src/data/scripts/dock_solv.prm

>  <Rbt.Receptor>
prm/pocket_docking_2.prm

>  <SCORE>
-7.48055

>  <SCORE.INTER>
-7.50876

>  <SCORE.INTER.CONST>
1

>  <SCORE.INTER.POLAR>
0

>  <SCORE.INTER.ROT>
3

>  <SCORE.INTER.SOLV>
19.5128

>  <SCORE.INTER.VDW>
-17.1101

>  <SCORE.INTER.norm>
-0.341307

>  <SCORE.INTRA>
0.0282108

>  <SCORE.INTRA.DIHEDRAL>
-0.0127699

>  <SCORE.INTRA.DIHEDRAL.0>
7.18044

>  <SCORE.INTRA.POLAR>
0

>  <SCORE.INTRA.POLAR.0>
0

>  <SCORE.INTRA.REPUL>
0

>  <SCORE.INTRA.REPUL.0>
0

>  <SCORE.INTRA.SOLV>
0.114766

>  <SCORE.INTRA.SOLV.lig_0>
-72.0615

>  <SCORE.INTRA.VDW>
-0.0227872

>  <SCORE.INTRA.VDW.0>
-1.54792

>  <SCORE.INTRA.norm>
0.00128231

>  <SCORE.RESTR>
0

>  <SCORE.RESTR.CAVITY>
0

>  <SCORE.RESTR.norm>
0

>  <SCORE.SYSTEM>
0

>  <SCORE.SYSTEM.CONST>
0

>  <SCORE.SYSTEM.DIHEDRAL>
0

>  <SCORE.SYSTEM.SOLV>
0

>  <SCORE.SYSTEM.norm>
0

>  <SCORE.heavy>
22

>  <SCORE.norm>
-0.340025

>  <RMSD>
0.905

$$$$
lig.pdb
 OpenBabel11021811523D
libRbt.so/2013.1/901 2013/11/27
 22 23  0  0  0  0  0  0  0  0999 V2000
   16.8962   -9.5718   25.1925 C   0  0  1  0  0  0  0  0  0  0  0  0
   18.7868   -8.5388   26.4602 C   0  0  1  0  0  0  0  0  0  0  0  0
   18.1608   -7.0376   26.6694 C   0  0  1  0  0  0  0  0  0  0  0  0
   19.3895   -6.0356   26.9548 C   0  0  2  0  0  0  0  0  0  0  0  0
   15.3361   -9.5439   25.5230 C   0  0  1  0  0  0  0  0  0  0  0  0
   14.8890  -10.8981   26.1994 C   0  0  2  0  0  0  0  0  0  0  0  0
   15.1578  -12.0950   25.1613 C   0  0  1  0  0  0  0  0  0  0  0  0
   16.7423  -12.2142   24.8451 C   0  0  1  0  0  0  0  0  0  0  0  0
   17.0987  -13.3571   23.8546 C   0  0  0  0  0  0  0  0  0  0  0  0
   20.0880   -6.5028   28.3245 C   0  0  1  0  0  0  0  0  0  0  0  0
   20.6765   -7.9844   28.0860 C   0  0  0  0  0  0  0  0  0  0  0  0
   19.5062   -9.0037   27.7491 C   0  0  2  0  0  0  0  0  0  0  0  0
   14.7472  -13.3924   25.7086 F   0  0  0  0  0  0  0  0  0  0  0  0
   15.1262   -8.3219   26.4299 N   0  0  0  0  0  0  0  0  0  0  0  0
   18.4877  -13.5249   23.6292 N   0  0  0  0  0  0  0  0  0  0  0  0
   21.2525   -5.6178   28.6439 N   0  0  0  0  0  0  0  0  0  0  0  0
   20.0277  -10.3469   27.5148 N   0  0  0  0  0  0  0  0  0  0  0  0
   17.7926   -9.5112   26.2295 O   0  0  0  0  0  0  0  0  0  0  0  0
   17.4875   -6.6335   25.3968 O   0  0  0  0  0  0  0  0  0  0  0  0
   18.8678   -4.7625   27.1351 O   0  0  0  0  0  0  0  0  0  0  0  0
   13.7342  -10.8245   26.4147 O   0  0  0  0  0  0  0  0  0  0  0  0
   17.2002  -10.8128   24.2928 O   0  0  0  0  0  0  0  0  0  0  0  0
  1  5  1  0  0  0  0
  1 18  1  1  0  0  0
  2 18  1  1  0  0  0
  2  3  1  0  0  0  0
  2 12  1  0  0  0  0
  3 19  1  6  0  0  0
  3  4  1  0  0  0  0
  4 20  1  1  0  0  0
  4 10  1  0  0  0  0
  5  6  1  0  0  0  0
  5 14  1  1  0  0  0
  6 21  1  6  0  0  0
  7 13  1  1  0  0  0
  7  6  1  0  0  0  0
  8  9  1  6  0  0  0
  8  7  1  0  0  0  0
 10 16  1  6  0  0  0
 11 10  1  0  0  0  0
 12 17  1  6  0  0  0
 12 11  1  0  0  0  0
 15  9  1  0  0  0  0
 22  8  1  0  0  0  0
 22  1  1  0  0  0  0
M  END
>  <CHROM.1>
-120.20899426,61.45555140,-176.45889592,17.55070274,-9.43149514,26.17967970
2.13073373,0.13492701,-2.81578909

>  <Name>
lig.pdb

>  <RI>
0

>  <Rbt.Current_Directory>
/home/itssahil/PROJECTS/Mol_Feturizer/New_Systems/rnas/5bxk

>  <Rbt.Executable>
rbdock ($Id: //depot/dev/client3/rdock/2013.1/src/exe/rbdock.cxx#4 $)

>  <Rbt.Library>
libRbt.so (2013.1, Build901 2013/11/27)

>  <Rbt.Parameter_File>
/export/apps/rDock/src/rDock_2013.1_src/data/scripts/dock_solv.prm

>  <Rbt.Receptor>
prm/pocket_docking_2.prm

>  <SCORE>
-7.52811

>  <SCORE.INTER>
-7.5122

>  <SCORE.INTER.CONST>
1

>  <SCORE.INTER.POLAR>
0

>  <SCORE.INTER.ROT>
3

>  <SCORE.INTER.SOLV>
19.8658

>  <SCORE.INTER.VDW>
-17.2301

>  <SCORE.INTER.norm>
-0.341463

>  <SCORE.INTRA>
-0.01591

>  <SCORE.INTRA.DIHEDRAL>
-0.0575848

>  <SCORE.INTRA.DIHEDRAL.0>
7.18044

>  <SCORE.INTRA.POLAR>
0

>  <SCORE.INTRA.POLAR.0>
0

>  <SCORE.INTRA.REPUL>
0

>  <SCORE.INTRA.REPUL.0>
0

>  <SCORE.INTRA.SOLV>
0.0632486

>  <SCORE.INTRA.SOLV.lig_0>
-72.0615

>  <SCORE.INTRA.VDW>
-0.0187419

>  <SCORE.INTRA.VDW.0>
-1.54792

>  <SCORE.INTRA.norm>
-0.000723182

>  <SCORE.RESTR>
0

>  <SCORE.RESTR.CAVITY>
0

>  <SCORE.RESTR.norm>
0

>  <SCORE.SYSTEM>
0

>  <SCORE.SYSTEM.CONST>
0

>  <SCORE.SYSTEM.DIHEDRAL>
0

>  <SCORE.SYSTEM.SOLV>
0

>  <SCORE.SYSTEM.norm>
0

>  <SCORE.heavy>
22

>  <SCORE.norm>
-0.342187

>  <RMSD>
0.908

$$$$
lig.pdb
 OpenBabel11021811523D
libRbt.so/2013.1/901 2013/11/27
 22 23  0  0  0  0  0  0  0  0999 V2000
   16.9627   -9.5630   25.1364 C   0  0  1  0  0  0  0  0  0  0  0  0
   18.8248   -8.5424   26.4553 C   0  0  1  0  0  0  0  0  0  0  0  0
   18.1991   -7.0415   26.6677 C   0  0  1  0  0  0  0  0  0  0  0  0
   19.4249   -6.0460   26.9861 C   0  0  2  0  0  0  0  0  0  0  0  0
   15.3955   -9.4920   25.4245 C   0  0  1  0  0  0  0  0  0  0  0  0
   14.8970  -10.8250   26.1071 C   0  0  2  0  0  0  0  0  0  0  0  0
   15.1633  -12.0428   25.0931 C   0  0  1  0  0  0  0  0  0  0  0  0
   16.7521  -12.2054   24.8212 C   0  0  1  0  0  0  0  0  0  0  0  0
   17.1060  -13.3709   23.8563 C   0  0  0  0  0  0  0  0  0  0  0  0
   20.0962   -6.5287   28.3640 C   0  0  1  0  0  0  0  0  0  0  0  0
   20.6850   -8.0096   28.1218 C   0  0  0  0  0  0  0  0  0  0  0  0
   19.5186   -9.0221   27.7528 C   0  0  2  0  0  0  0  0  0  0  0  0
   14.7061  -13.3218   25.6469 F   0  0  0  0  0  0  0  0  0  0  0  0
   15.1923   -8.2523   26.3087 N   0  0  0  0  0  0  0  0  0  0  0  0
   18.4959  -13.5887   23.6860 N   0  0  0  0  0  0  0  0  0  0  0  0
   21.2569   -5.6503   28.7141 N   0  0  0  0  0  0  0  0  0  0  0  0
   20.0408  -10.3645   27.5149 N   0  0  0  0  0  0  0  0  0  0  0  0
   17.8325   -9.5096   26.1962 O   0  0  0  0  0  0  0  0  0  0  0  0
   17.5510   -6.6228   25.3867 O   0  0  0  0  0  0  0  0  0  0  0  0
   18.9034   -4.7732   27.1693 O   0  0  0  0  0  0  0  0  0  0  0  0
   13.7391  -10.7199   26.2904 O   0  0  0  0  0  0  0  0  0  0  0  0
   17.2594  -10.8238   24.2623 O   0  0  0  0  0  0  0  0  0  0  0  0
  1  5  1  0  0  0  0
  1 18  1  1  0  0  0
  2 18  1  1  0  0  0
  2  3  1  0  0  0  0
  2 12  1  0  0  0  0
  3 19  1  6  0  0  0
  3  4  1  0  0  0  0
  4 20  1  1  0  0  0
  4 10  1  0  0  0  0
  5  6  1  0  0  0  0
  5 14  1  1  0  0  0
  6 21  1  6  0  0  0
  7 13  1  1  0  0  0
  7  6  1  0  0  0  0
  8  9  1  6  0  0  0
  8  7  1  0  0  0  0
 10 16  1  6  0  0  0
 11 10  1  0  0  0  0
 12 17  1  6  0  0  0
 12 11  1  0  0  0  0
 15  9  1  0  0  0  0
 22  8  1  0  0  0  0
 22  1  1  0  0  0  0
M  END
>  <CHROM.1>
-118.68866703,62.01660909,-175.57240476,17.57507906,-9.42055761,26.15822502
2.13513361,0.16867614,-2.82220340

>  <Name>
lig.pdb

>  <RI>
0

>  <Rbt.Current_Directory>
/home/itssahil/PROJECTS/Mol_Feturizer/New_Systems/rnas/5bxk

>  <Rbt.Executable>
rbdock ($Id: //depot/dev/client3/rdock/2013.1/src/exe/rbdock.cxx#4 $)

>  <Rbt.Library>
libRbt.so (2013.1, Build901 2013/11/27)

>  <Rbt.Parameter_File>
/export/apps/rDock/src/rDock_2013.1_src/data/scripts/dock_solv.prm

>  <Rbt.Receptor>
prm/pocket_docking_3.prm

>  <SCORE>
-7.53471

>  <SCORE.INTER>
-7.56662

>  <SCORE.INTER.CONST>
1

>  <SCORE.INTER.POLAR>
0

>  <SCORE.INTER.ROT>
3

>  <SCORE.INTER.SOLV>
19.7297

>  <SCORE.INTER.VDW>
-17.221

>  <SCORE.INTER.norm>
-0.343937

>  <SCORE.INTRA>
0.0319151

>  <SCORE.INTRA.DIHEDRAL>
-0.0303964

>  <SCORE.INTRA.DIHEDRAL.0>
7.18044

>  <SCORE.INTRA.POLAR>
0

>  <SCORE.INTRA.POLAR.0>
0

>  <SCORE.INTRA.REPUL>
0

>  <SCORE.INTRA.REPUL.0>
0

>  <SCORE.INTRA.SOLV>
0.149837

>  <SCORE.INTRA.SOLV.lig_0>
-72.0615

>  <SCORE.INTRA.VDW>
-0.027805

>  <SCORE.INTRA.VDW.0>
-1.54792

>  <SCORE.INTRA.norm>
0.00145069

>  <SCORE.RESTR>
0

>  <SCORE.RESTR.CAVITY>
0

>  <SCORE.RESTR.norm>
0

>  <SCORE.SYSTEM>
0

>  <SCORE.SYSTEM.CONST>
0

>  <SCORE.SYSTEM.DIHEDRAL>
0

>  <SCORE.SYSTEM.SOLV>
0

>  <SCORE.SYSTEM.norm>
0

>  <SCORE.heavy>
22

>  <SCORE.norm>
-0.342487

>  <RMSD>
0.908

$$$$
lig.pdb
 OpenBabel11021811523D
libRbt.so/2013.1/901 2013/11/27
 22 23  0  0  0  0  0  0  0  0999 V2000
   16.9541   -9.5691   25.1371 C   0  0  1  0  0  0  0  0  0  0  0  0
   18.8211   -8.5448   26.4460 C   0  0  1  0  0  0  0  0  0  0  0  0
   18.1835   -7.0474   26.6474 C   0  0  1  0  0  0  0  0  0  0  0  0
   19.4004   -6.0416   26.9680 C   0  0  2  0  0  0  0  0  0  0  0  0
   15.3902   -9.5162   25.4464 C   0  0  1  0  0  0  0  0  0  0  0  0
   14.9130  -10.8618   26.1194 C   0  0  2  0  0  0  0  0  0  0  0  0
   15.1771  -12.0650   25.0874 C   0  0  1  0  0  0  0  0  0  0  0  0
   16.7637  -12.2095   24.7930 C   0  0  1  0  0  0  0  0  0  0  0  0
   17.1156  -13.3601   23.8097 C   0  0  0  0  0  0  0  0  0  0  0  0
   20.0672   -6.5128   28.3520 C   0  0  1  0  0  0  0  0  0  0  0  0
   20.6679   -7.9906   28.1205 C   0  0  0  0  0  0  0  0  0  0  0  0
   19.5107   -9.0132   27.7498 C   0  0  2  0  0  0  0  0  0  0  0  0
   14.7390  -13.3547   25.6318 F   0  0  0  0  0  0  0  0  0  0  0  0
   15.1872   -8.2891   26.3479 N   0  0  0  0  0  0  0  0  0  0  0  0
   18.5040  -13.5363   23.5872 N   0  0  0  0  0  0  0  0  0  0  0  0
   21.2196   -5.6245   28.7043 N   0  0  0  0  0  0  0  0  0  0  0  0
   20.0438  -10.3529   27.5216 N   0  0  0  0  0  0  0  0  0  0  0  0
   17.8371   -9.5202   26.1861 O   0  0  0  0  0  0  0  0  0  0  0  0
   17.5399   -6.6396   25.3607 O   0  0  0  0  0  0  0  0  0  0  0  0
   18.8689   -4.7717   27.1418 O   0  0  0  0  0  0  0  0  0  0  0  0
   13.7567  -10.7698   26.3189 O   0  0  0  0  0  0  0  0  0  0  0  0
   17.2508  -10.8167   24.2441 O   0  0  0  0  0  0  0  0  0  0  0  0
  1  5  1  0  0  0  0
  1 18  1  1  0  0  0
  2 18  1  1  0  0  0
  2  3  1  0  0  0  0
  2 12  1  0  0  0  0
  3 19  1  6  0  0  0
  3  4  1  0  0  0  0
  4 20  1  1  0  0  0
  4 10  1  0  0  0  0
  5  6  1  0  0  0  0
  5 14  1  1  0  0  0
  6 21  1  6  0  0  0
  7 13  1  1  0  0  0
  7  6  1  0  0  0  0
  8  9  1  6  0  0  0
  8  7  1  0  0  0  0
 10 16  1  6  0  0  0
 11 10  1  0  0  0  0
 12 17  1  6  0  0  0
 12 11  1  0  0  0  0
 15  9  1  0  0  0  0
 22  8  1  0  0  0  0
 22  1  1  0  0  0  0
M  END
>  <CHROM.1>
-118.47385088,60.44172445,-177.40302913,17.57149545,-9.42536578,26.14707938
2.12760512,0.15486163,-2.81217698

>  <Name>
lig.pdb

>  <RI>
0

>  <Rbt.Current_Directory>
/home/itssahil/PROJECTS/Mol_Feturizer/New_Systems/rnas/5bxk

>  <Rbt.Executable>
rbdock ($Id: //depot/dev/client3/rdock/2013.1/src/exe/rbdock.cxx#4 $)

>  <Rbt.Library>
libRbt.so (2013.1, Build901 2013/11/27)

>  <Rbt.Parameter_File>
/export/apps/rDock/src/rDock_2013.1_src/data/scripts/dock_solv.prm

>  <Rbt.Receptor>
prm/pocket_docking_8.prm

>  <SCORE>
-7.53891

>  <SCORE.INTER>
-7.5518

>  <SCORE.INTER.CONST>
1

>  <SCORE.INTER.POLAR>
0

>  <SCORE.INTER.ROT>
3

>  <SCORE.INTER.SOLV>
19.8617

>  <SCORE.INTER.VDW>
-17.2551

>  <SCORE.INTER.norm>
-0.343264

>  <SCORE.INTRA>
0.0128893

>  <SCORE.INTRA.DIHEDRAL>
-0.0989879

>  <SCORE.INTRA.DIHEDRAL.0>
7.18044

>  <SCORE.INTRA.POLAR>
0

>  <SCORE.INTRA.POLAR.0>
0

>  <SCORE.INTRA.REPUL>
0

>  <SCORE.INTRA.REPUL.0>
0

>  <SCORE.INTRA.SOLV>
0.144779

>  <SCORE.INTRA.SOLV.lig_0>
-72.0615

>  <SCORE.INTRA.VDW>
-0.0100062

>  <SCORE.INTRA.VDW.0>
-1.54792

>  <SCORE.INTRA.norm>
0.000585879

>  <SCORE.RESTR>
0

>  <SCORE.RESTR.CAVITY>
0

>  <SCORE.RESTR.norm>
0

>  <SCORE.SYSTEM>
0

>  <SCORE.SYSTEM.CONST>
0

>  <SCORE.SYSTEM.DIHEDRAL>
0

>  <SCORE.SYSTEM.SOLV>
0

>  <SCORE.SYSTEM.norm>
0

>  <SCORE.heavy>
22

>  <SCORE.norm>
-0.342678

>  <RMSD>
0.912

$$$$
lig.pdb
 OpenBabel11021811523D
libRbt.so/2013.1/901 2013/11/27
 22 23  0  0  0  0  0  0  0  0999 V2000
   16.9343   -9.4849   25.2985 C   0  0  1  0  0  0  0  0  0  0  0  0
   18.8536   -8.4952   26.5577 C   0  0  1  0  0  0  0  0  0  0  0  0
   18.2641   -6.9836   26.7961 C   0  0  1  0  0  0  0  0  0  0  0  0
   19.5190   -6.0119   27.0715 C   0  0  2  0  0  0  0  0  0  0  0  0
   15.4210   -9.8788   25.6126 C   0  0  1  0  0  0  0  0  0  0  0  0
   15.3122  -11.4099   25.9804 C   0  0  2  0  0  0  0  0  0  0  0  0
   15.7992  -12.2704   24.7136 C   0  0  1  0  0  0  0  0  0  0  0  0
   17.3571  -11.9608   24.3943 C   0  0  1  0  0  0  0  0  0  0  0  0
   17.9194  -12.7603   23.1864 C   0  0  0  0  0  0  0  0  0  0  0  0
   20.2312   -6.5109   28.4228 C   0  0  1  0  0  0  0  0  0  0  0  0
   20.7832   -8.0017   28.1560 C   0  0  0  0  0  0  0  0  0  0  0  0
   19.5853   -8.9914   27.8278 C   0  0  2  0  0  0  0  0  0  0  0  0
   15.7083  -13.7121   24.9679 F   0  0  0  0  0  0  0  0  0  0  0  0
   14.9807   -8.9537   26.7571 N   0  0  0  0  0  0  0  0  0  0  0  0
   19.3111  -12.5990   22.9740 N   0  0  0  0  0  0  0  0  0  0  0  0
   21.4202   -5.6551   28.7320 N   0  0  0  0  0  0  0  0  0  0  0  0
   20.0734  -10.3425   27.5681 N   0  0  0  0  0  0  0  0  0  0  0  0
   17.8346   -9.4431   26.3331 O   0  0  0  0  0  0  0  0  0  0  0  0
   17.5774   -6.5494   25.5406 O   0  0  0  0  0  0  0  0  0  0  0  0
   19.0284   -4.7302   27.2764 O   0  0  0  0  0  0  0  0  0  0  0  0
   14.1791  -11.6449   26.1956 O   0  0  0  0  0  0  0  0  0  0  0  0
   17.4708  -10.4085   24.1579 O   0  0  0  0  0  0  0  0  0  0  0  0
  1  5  1  0  0  0  0
  1 18  1  1  0  0  0
  2 18  1  1  0  0  0
  2  3  1  0  0  0  0
  2 12  1  0  0  0  0
  3 19  1  6  0  0  0
  3  4  1  0  0  0  0
  4 20  1  1  0  0  0
  4 10  1  0  0  0  0
  5  6  1  0  0  0  0
  5 14  1  1  0  0  0
  6 21  1  6  0  0  0
  7 13  1  1  0  0  0
  7  6  1  0  0  0  0
  8  9  1  6  0  0  0
  8  7  1  0  0  0  0
 10 16  1  6  0  0  0
 11 10  1  0  0  0  0
 12 17  1  6  0  0  0
 12 11  1  0  0  0  0
 15  9  1  0  0  0  0
 22  8  1  0  0  0  0
 22  1  1  0  0  0  0
M  END
>  <CHROM.1>
-139.35514993,62.73238591,-174.21462483,17.83843124,-9.44819603,26.08460721
2.07020573,0.01264207,-2.67284212

>  <Name>
lig.pdb

>  <RI>
0

>  <Rbt.Current_Directory>
/home/itssahil/PROJECTS/Mol_Feturizer/New_Systems/rnas/5bxk

>  <Rbt.Executable>
rbdock ($Id: //depot/dev/client3/rdock/2013.1/src/exe/rbdock.cxx#4 $)

>  <Rbt.Library>
libRbt.so (2013.1, Build901 2013/11/27)

>  <Rbt.Parameter_File>
/export/apps/rDock/src/rDock_2013.1_src/data/scripts/dock_solv.prm

>  <Rbt.Receptor>
prm/pocket_docking_2.prm

>  <SCORE>
-7.34107

>  <SCORE.INTER>
-6.23172

>  <SCORE.INTER.CONST>
1

>  <SCORE.INTER.POLAR>
0

>  <SCORE.INTER.ROT>
3

>  <SCORE.INTER.SOLV>
22.6537

>  <SCORE.INTER.VDW>
-17.3057

>  <SCORE.INTER.norm>
-0.28326

>  <SCORE.INTRA>
-1.10935

>  <SCORE.INTRA.DIHEDRAL>
-1.58815

>  <SCORE.INTRA.DIHEDRAL.0>
7.18044

>  <SCORE.INTRA.POLAR>
0

>  <SCORE.INTRA.POLAR.0>
0

>  <SCORE.INTRA.REPUL>
0

>  <SCORE.INTRA.REPUL.0>
0

>  <SCORE.INTRA.SOLV>
-0.817773

>  <SCORE.INTRA.SOLV.lig_0>
-72.0615

>  <SCORE.INTRA.VDW>
0.0936115

>  <SCORE.INTRA.VDW.0>
-1.54792

>  <SCORE.INTRA.norm>
-0.050425

>  <SCORE.RESTR>
0

>  <SCORE.RESTR.CAVITY>
0

>  <SCORE.RESTR.norm>
0

>  <SCORE.SYSTEM>
0

>  <SCORE.SYSTEM.CONST>
0

>  <SCORE.SYSTEM.DIHEDRAL>
0

>  <SCORE.SYSTEM.SOLV>
0

>  <SCORE.SYSTEM.norm>
0

>  <SCORE.heavy>
22

>  <SCORE.norm>
-0.333685

>  <RMSD>
0.915

$$$$
lig.pdb
 OpenBabel11021811523D
libRbt.so/2013.1/901 2013/11/27
 22 23  0  0  0  0  0  0  0  0999 V2000
   16.9097   -9.5836   25.1880 C   0  0  1  0  0  0  0  0  0  0  0  0
   18.7976   -8.5533   26.4619 C   0  0  1  0  0  0  0  0  0  0  0  0
   18.1661   -7.0549   26.6752 C   0  0  1  0  0  0  0  0  0  0  0  0
   19.3906   -6.0501   26.9684 C   0  0  2  0  0  0  0  0  0  0  0  0
   15.3504   -9.5245   25.5183 C   0  0  1  0  0  0  0  0  0  0  0  0
   14.8795  -10.8634   26.2090 C   0  0  2  0  0  0  0  0  0  0  0  0
   15.1268  -12.0757   25.1835 C   0  0  1  0  0  0  0  0  0  0  0  0
   16.7089  -12.2263   24.8685 C   0  0  1  0  0  0  0  0  0  0  0  0
   17.0447  -13.3858   23.8901 C   0  0  0  0  0  0  0  0  0  0  0  0
   20.0864   -6.5205   28.3383 C   0  0  1  0  0  0  0  0  0  0  0  0
   20.6805   -7.9992   28.0957 C   0  0  0  0  0  0  0  0  0  0  0  0
   19.5146   -9.0209   27.7512 C   0  0  2  0  0  0  0  0  0  0  0  0
   14.6934  -13.3598   25.7446 F   0  0  0  0  0  0  0  0  0  0  0  0
   15.1625   -8.2895   26.4123 N   0  0  0  0  0  0  0  0  0  0  0  0
   18.4293  -13.5645   23.6471 N   0  0  0  0  0  0  0  0  0  0  0  0
   21.2471   -5.6330   28.6648 N   0  0  0  0  0  0  0  0  0  0  0  0
   20.0412  -10.3615   27.5131 N   0  0  0  0  0  0  0  0  0  0  0  0
   17.8072   -9.5279   26.2243 O   0  0  0  0  0  0  0  0  0  0  0  0
   17.4953   -6.6479   25.4021 O   0  0  0  0  0  0  0  0  0  0  0  0
   18.8642   -4.7794   27.1521 O   0  0  0  0  0  0  0  0  0  0  0  0
   13.7263  -10.7670   26.4236 O   0  0  0  0  0  0  0  0  0  0  0  0
   17.1914  -10.8392   24.3015 O   0  0  0  0  0  0  0  0  0  0  0  0
  1  5  1  0  0  0  0
  1 18  1  1  0  0  0
  2 18  1  1  0  0  0
  2  3  1  0  0  0  0
  2 12  1  0  0  0  0
  3 19  1  6  0  0  0
  3  4  1  0  0  0  0
  4 20  1  1  0  0  0
  4 10  1  0  0  0  0
  5  6  1  0  0  0  0
  5 14  1  1  0  0  0
  6 21  1  6  0  0  0
  7 13  1  1  0  0  0
  7  6  1  0  0  0  0
  8  9  1  6  0  0  0
  8  7  1  0  0  0  0
 10 16  1  6  0  0  0
 11 10  1  0  0  0  0
 12 17  1  6  0  0  0
 12 11  1  0  0  0  0
 15  9  1  0  0  0  0
 22  8  1  0  0  0  0
 22  1  1  0  0  0  0
M  END
>  <CHROM.1>
-118.53567120,61.08617238,-177.57452020,17.54376509,-9.43528990,26.18998536
2.13524574,0.14090736,-2.81919423

>  <Name>
lig.pdb

>  <RI>
0

>  <Rbt.Current_Directory>
/home/itssahil/PROJECTS/Mol_Feturizer/New_Systems/rnas/5bxk

>  <Rbt.Executable>
rbdock ($Id: //depot/dev/client3/rdock/2013.1/src/exe/rbdock.cxx#4 $)

>  <Rbt.Library>
libRbt.so (2013.1, Build901 2013/11/27)

>  <Rbt.Parameter_File>
/export/apps/rDock/src/rDock_2013.1_src/data/scripts/dock_solv.prm

>  <Rbt.Receptor>
prm/pocket_docking_2.prm

>  <SCORE>
-7.52377

>  <SCORE.INTER>
-7.53577

>  <SCORE.INTER.CONST>
1

>  <SCORE.INTER.POLAR>
0

>  <SCORE.INTER.ROT>
3

>  <SCORE.INTER.SOLV>
19.7719

>  <SCORE.INTER.VDW>
-17.2145

>  <SCORE.INTER.norm>
-0.342535

>  <SCORE.INTRA>
0.0119923

>  <SCORE.INTRA.DIHEDRAL>
-0.0963951

>  <SCORE.INTRA.DIHEDRAL.0>
7.18044

>  <SCORE.INTRA.POLAR>
0

>  <SCORE.INTRA.POLAR.0>
0

>  <SCORE.INTRA.REPUL>
0

>  <SCORE.INTRA.REPUL.0>
0

>  <SCORE.INTRA.SOLV>
0.155418

>  <SCORE.INTRA.SOLV.lig_0>
-72.0615

>  <SCORE.INTRA.VDW>
-0.0175192

>  <SCORE.INTRA.VDW.0>
-1.54792

>  <SCORE.INTRA.norm>
0.000545106

>  <SCORE.RESTR>
0

>  <SCORE.RESTR.CAVITY>
0

>  <SCORE.RESTR.norm>
0

>  <SCORE.SYSTEM>
0

>  <SCORE.SYSTEM.CONST>
0

>  <SCORE.SYSTEM.DIHEDRAL>
0

>  <SCORE.SYSTEM.SOLV>
0

>  <SCORE.SYSTEM.norm>
0

>  <SCORE.heavy>
22

>  <SCORE.norm>
-0.34199

>  <RMSD>
0.915

$$$$
lig.pdb
 OpenBabel11021811523D
libRbt.so/2013.1/901 2013/11/27
 22 23  0  0  0  0  0  0  0  0999 V2000
   16.9467   -9.1159   25.7077 C   0  0  1  0  0  0  0  0  0  0  0  0
   19.0466   -8.4999   26.9156 C   0  0  1  0  0  0  0  0  0  0  0  0
   18.8235   -6.9688   27.4589 C   0  0  1  0  0  0  0  0  0  0  0  0
   20.2784   -6.2993   27.6325 C   0  0  2  0  0  0  0  0  0  0  0  0
   15.4403   -9.5862   25.9394 C   0  0  1  0  0  0  0  0  0  0  0  0
   15.3669  -11.1558   26.0885 C   0  0  2  0  0  0  0  0  0  0  0  0
   15.8921  -11.8188   24.7222 C   0  0  1  0  0  0  0  0  0  0  0  0
   17.4453  -11.4302   24.4742 C   0  0  1  0  0  0  0  0  0  0  0  0
   18.0434  -12.0392   23.1758 C   0  0  0  0  0  0  0  0  0  0  0  0
   21.0677   -7.1383   28.7528 C   0  0  1  0  0  0  0  0  0  0  0  0
   21.2545   -8.6377   28.1915 C   0  0  0  0  0  0  0  0  0  0  0  0
   19.8432   -9.3260   27.9539 C   0  0  2  0  0  0  0  0  0  0  0  0
   15.8358  -13.2837   24.7715 F   0  0  0  0  0  0  0  0  0  0  0  0
   14.9617   -8.8410   27.1945 N   0  0  0  0  0  0  0  0  0  0  0  0
   18.1455  -13.4526   23.1849 N   0  0  0  0  0  0  0  0  0  0  0  0
   22.4400   -6.5750   28.9554 N   0  0  0  0  0  0  0  0  0  0  0  0
   19.9980  -10.6797   27.4298 N   0  0  0  0  0  0  0  0  0  0  0  0
   17.8325   -9.1973   26.7523 O   0  0  0  0  0  0  0  0  0  0  0  0
   18.0600   -6.2133   26.4185 O   0  0  0  0  0  0  0  0  0  0  0  0
   20.0986   -5.0032   28.0941 O   0  0  0  0  0  0  0  0  0  0  0  0
   14.2378  -11.4459   26.2506 O   0  0  0  0  0  0  0  0  0  0  0  0
   17.5213   -9.8578   24.4583 O   0  0  0  0  0  0  0  0  0  0  0  0
  1  5  1  0  0  0  0
  1 18  1  1  0  0  0
  2 18  1  1  0  0  0
  2  3  1  0  0  0  0
  2 12  1  0  0  0  0
  3 19  1  6  0  0  0
  3  4  1  0  0  0  0
  4 20  1  1  0  0  0
  4 10  1  0  0  0  0
  5  6  1  0  0  0  0
  5 14  1  1  0  0  0
  6 21  1  6  0  0  0
  7 13  1  1  0  0  0
  7  6  1  0  0  0  0
  8  9  1  6  0  0  0
  8  7  1  0  0  0  0
 10 16  1  6  0  0  0
 11 10  1  0  0  0  0
 12 17  1  6  0  0  0
 12 11  1  0  0  0  0
 15  9  1  0  0  0  0
 22  8  1  0  0  0  0
 22  1  1  0  0  0  0
M  END
>  <CHROM.1>
-159.26177636,79.99212960,-66.09947973,18.06629622,-9.42630144,26.35621300
2.18453020,0.08712312,-2.62948113

>  <Name>
lig.pdb

>  <RI>
0

>  <Rbt.Current_Directory>
/home/itssahil/PROJECTS/Mol_Feturizer/New_Systems/rnas/5bxk

>  <Rbt.Executable>
rbdock ($Id: //depot/dev/client3/rdock/2013.1/src/exe/rbdock.cxx#4 $)

>  <Rbt.Library>
libRbt.so (2013.1, Build901 2013/11/27)

>  <Rbt.Parameter_File>
/export/apps/rDock/src/rDock_2013.1_src/data/scripts/dock_solv.prm

>  <Rbt.Receptor>
prm/pocket_docking_4.prm

>  <SCORE>
-8.52895

>  <SCORE.INTER>
-6.80181

>  <SCORE.INTER.CONST>
1

>  <SCORE.INTER.POLAR>
0

>  <SCORE.INTER.ROT>
3

>  <SCORE.INTER.SOLV>
20.8474

>  <SCORE.INTER.VDW>
-17.0837

>  <SCORE.INTER.norm>
-0.309173

>  <SCORE.INTRA>
-1.72714

>  <SCORE.INTRA.DIHEDRAL>
-3.26404

>  <SCORE.INTRA.DIHEDRAL.0>
7.18044

>  <SCORE.INTRA.POLAR>
0

>  <SCORE.INTRA.POLAR.0>
0

>  <SCORE.INTRA.REPUL>
0

>  <SCORE.INTRA.REPUL.0>
0

>  <SCORE.INTRA.SOLV>
-0.0486919

>  <SCORE.INTRA.SOLV.lig_0>
-72.0615

>  <SCORE.INTRA.VDW>
-0.0707742

>  <SCORE.INTRA.VDW.0>
-1.54792

>  <SCORE.INTRA.norm>
-0.0785065

>  <SCORE.RESTR>
0

>  <SCORE.RESTR.CAVITY>
0

>  <SCORE.RESTR.norm>
0

>  <SCORE.SYSTEM>
0

>  <SCORE.SYSTEM.CONST>
0

>  <SCORE.SYSTEM.DIHEDRAL>
0

>  <SCORE.SYSTEM.SOLV>
0

>  <SCORE.SYSTEM.norm>
0

>  <SCORE.heavy>
22

>  <SCORE.norm>
-0.38768

>  <RMSD>
0.925

$$$$
lig.pdb
 OpenBabel11021811523D
libRbt.so/2013.1/901 2013/11/27
 22 23  0  0  0  0  0  0  0  0999 V2000
   16.7995   -9.5108   25.1822 C   0  0  1  0  0  0  0  0  0  0  0  0
   18.6856   -8.4302   26.4164 C   0  0  1  0  0  0  0  0  0  0  0  0
   18.0272   -6.9433   26.6287 C   0  0  1  0  0  0  0  0  0  0  0  0
   19.2358   -5.9113   26.8925 C   0  0  2  0  0  0  0  0  0  0  0  0
   15.2446   -9.4659   25.5348 C   0  0  1  0  0  0  0  0  0  0  0  0
   14.8012  -10.7990   26.2543 C   0  0  2  0  0  0  0  0  0  0  0  0
   15.0488  -12.0249   25.2453 C   0  0  1  0  0  0  0  0  0  0  0  0
   16.6278  -12.1608   24.9090 C   0  0  1  0  0  0  0  0  0  0  0  0
   16.9640  -13.3320   23.9448 C   0  0  0  0  0  0  0  0  0  0  0  0
   19.9647   -6.3560   28.2537 C   0  0  1  0  0  0  0  0  0  0  0  0
   20.5847   -7.8243   28.0125 C   0  0  0  0  0  0  0  0  0  0  0  0
   19.4342   -8.8724   27.6965 C   0  0  2  0  0  0  0  0  0  0  0  0
   14.6403  -13.3049   25.8337 F   0  0  0  0  0  0  0  0  0  0  0  0
   15.0541   -8.2188   26.4112 N   0  0  0  0  0  0  0  0  0  0  0  0
   18.3480  -13.5066   23.6956 N   0  0  0  0  0  0  0  0  0  0  0  0
   21.1124   -5.4424   28.5529 N   0  0  0  0  0  0  0  0  0  0  0  0
   19.9840  -10.2039   27.4600 N   0  0  0  0  0  0  0  0  0  0  0  0
   17.7115   -9.4268   26.2038 O   0  0  0  0  0  0  0  0  0  0  0  0
   17.3264   -6.5606   25.3643 O   0  0  0  0  0  0  0  0  0  0  0  0
   18.6867   -4.6502   27.0753 O   0  0  0  0  0  0  0  0  0  0  0  0
   13.6501  -10.7136   26.4847 O   0  0  0  0  0  0  0  0  0  0  0  0
   17.0841  -10.7773   24.3122 O   0  0  0  0  0  0  0  0  0  0  0  0
  1  5  1  0  0  0  0
  1 18  1  1  0  0  0
  2 18  1  1  0  0  0
  2  3  1  0  0  0  0
  2 12  1  0  0  0  0
  3 19  1  6  0  0  0
  3  4  1  0  0  0  0
  4 20  1  1  0  0  0
  4 10  1  0  0  0  0
  5  6  1  0  0  0  0
  5 14  1  1  0  0  0
  6 21  1  6  0  0  0
  7 13  1  1  0  0  0
  7  6  1  0  0  0  0
  8  9  1  6  0  0  0
  8  7  1  0  0  0  0
 10 16  1  6  0  0  0
 11 10  1  0  0  0  0
 12 17  1  6  0  0  0
 12 11  1  0  0  0  0
 15  9  1  0  0  0  0
 22  8  1  0  0  0  0
 22  1  1  0  0  0  0
M  END
>  <CHROM.1>
-117.97809194,61.24400172,-176.90941352,17.43951942,-9.33679355,26.17943124
2.12379323,0.12347101,-2.83157940

>  <Name>
lig.pdb

>  <RI>
0

>  <Rbt.Current_Directory>
/home/itssahil/PROJECTS/Mol_Feturizer/New_Systems/rnas/5bxk

>  <Rbt.Executable>
rbdock ($Id: //depot/dev/client3/rdock/2013.1/src/exe/rbdock.cxx#4 $)

>  <Rbt.Library>
libRbt.so (2013.1, Build901 2013/11/27)

>  <Rbt.Parameter_File>
/export/apps/rDock/src/rDock_2013.1_src/data/scripts/dock_solv.prm

>  <Rbt.Receptor>
prm/pocket_docking_3.prm

>  <SCORE>
-7.55074

>  <SCORE.INTER>
-7.57725

>  <SCORE.INTER.CONST>
1

>  <SCORE.INTER.POLAR>
0

>  <SCORE.INTER.ROT>
3

>  <SCORE.INTER.SOLV>
19.6649

>  <SCORE.INTER.VDW>
-17.2065

>  <SCORE.INTER.norm>
-0.344421

>  <SCORE.INTRA>
0.0265117

>  <SCORE.INTRA.DIHEDRAL>
-0.0904414

>  <SCORE.INTRA.DIHEDRAL.0>
7.18044

>  <SCORE.INTRA.POLAR>
0

>  <SCORE.INTRA.POLAR.0>
0

>  <SCORE.INTRA.REPUL>
0

>  <SCORE.INTRA.REPUL.0>
0

>  <SCORE.INTRA.SOLV>
0.181524

>  <SCORE.INTRA.SOLV.lig_0>
-72.0615

>  <SCORE.INTRA.VDW>
-0.0190298

>  <SCORE.INTRA.VDW.0>
-1.54792

>  <SCORE.INTRA.norm>
0.00120508

>  <SCORE.RESTR>
0

>  <SCORE.RESTR.CAVITY>
0

>  <SCORE.RESTR.norm>
0

>  <SCORE.SYSTEM>
0

>  <SCORE.SYSTEM.CONST>
0

>  <SCORE.SYSTEM.DIHEDRAL>
0

>  <SCORE.SYSTEM.SOLV>
0

>  <SCORE.SYSTEM.norm>
0

>  <SCORE.heavy>
22

>  <SCORE.norm>
-0.343216

>  <RMSD>
0.935

$$$$
lig.pdb
 OpenBabel11021811523D
libRbt.so/2013.1/901 2013/11/27
 22 23  0  0  0  0  0  0  0  0999 V2000
   16.8930   -9.5877   25.1719 C   0  0  1  0  0  0  0  0  0  0  0  0
   18.7864   -8.5463   26.4286 C   0  0  1  0  0  0  0  0  0  0  0  0
   18.1437   -7.0509   26.6285 C   0  0  1  0  0  0  0  0  0  0  0  0
   19.3604   -6.0350   26.9161 C   0  0  2  0  0  0  0  0  0  0  0  0
   15.3377   -9.5458   25.5229 C   0  0  1  0  0  0  0  0  0  0  0  0
   14.8888  -10.8935   26.2111 C   0  0  2  0  0  0  0  0  0  0  0  0
   15.1343  -12.0969   25.1747 C   0  0  1  0  0  0  0  0  0  0  0  0
   16.7134  -12.2302   24.8381 C   0  0  1  0  0  0  0  0  0  0  0  0
   17.0475  -13.3802   23.8480 C   0  0  0  0  0  0  0  0  0  0  0  0
   20.0566   -6.4893   28.2913 C   0  0  1  0  0  0  0  0  0  0  0  0
   20.6617   -7.9656   28.0618 C   0  0  0  0  0  0  0  0  0  0  0  0
   19.5039   -8.9984   27.7230 C   0  0  2  0  0  0  0  0  0  0  0  0
   14.7206  -13.3887   25.7331 F   0  0  0  0  0  0  0  0  0  0  0  0
   15.1497   -8.3184   26.4272 N   0  0  0  0  0  0  0  0  0  0  0  0
   18.4324  -13.5653   23.6112 N   0  0  0  0  0  0  0  0  0  0  0  0
   21.2102   -5.5909   28.6131 N   0  0  0  0  0  0  0  0  0  0  0  0
   20.0406  -10.3371   27.4969 N   0  0  0  0  0  0  0  0  0  0  0  0
   17.8035   -9.5299   26.1967 O   0  0  0  0  0  0  0  0  0  0  0  0
   17.4728   -6.6589   25.3507 O   0  0  0  0  0  0  0  0  0  0  0  0
   18.8245   -4.7666   27.0885 O   0  0  0  0  0  0  0  0  0  0  0  0
   13.7376  -10.8097   26.4414 O   0  0  0  0  0  0  0  0  0  0  0  0
   17.1751  -10.8349   24.2737 O   0  0  0  0  0  0  0  0  0  0  0  0
  1  5  1  0  0  0  0
  1 18  1  1  0  0  0
  2 18  1  1  0  0  0
  2  3  1  0  0  0  0
  2 12  1  0  0  0  0
  3 19  1  6  0  0  0
  3  4  1  0  0  0  0
  4 20  1  1  0  0  0
  4 10  1  0  0  0  0
  5  6  1  0  0  0  0
  5 14  1  1  0  0  0
  6 21  1  6  0  0  0
  7 13  1  1  0  0  0
  7  6  1  0  0  0  0
  8  9  1  6  0  0  0
  8  7  1  0  0  0  0
 10 16  1  6  0  0  0
 11 10  1  0  0  0  0
 12 17  1  6  0  0  0
 12 11  1  0  0  0  0
 15  9  1  0  0  0  0
 22  8  1  0  0  0  0
 22  1  1  0  0  0  0
M  END
>  <CHROM.1>
-118.44610428,59.82273086,-176.09306173,17.53428788,-9.43564000,26.16346442
2.12820133,0.12994971,-2.81809784

>  <Name>
lig.pdb

>  <RI>
0

>  <Rbt.Current_Directory>
/home/itssahil/PROJECTS/Mol_Feturizer/New_Systems/rnas/5bxk

>  <Rbt.Executable>
rbdock ($Id: //depot/dev/client3/rdock/2013.1/src/exe/rbdock.cxx#4 $)

>  <Rbt.Library>
libRbt.so (2013.1, Build901 2013/11/27)

>  <Rbt.Parameter_File>
/export/apps/rDock/src/rDock_2013.1_src/data/scripts/dock_solv.prm

>  <Rbt.Receptor>
prm/pocket_docking_2.prm

>  <SCORE>
-7.50392

>  <SCORE.INTER>
-7.52801

>  <SCORE.INTER.CONST>
1

>  <SCORE.INTER.POLAR>
0

>  <SCORE.INTER.ROT>
3

>  <SCORE.INTER.SOLV>
19.9261

>  <SCORE.INTER.VDW>
-17.2607

>  <SCORE.INTER.norm>
-0.342182

>  <SCORE.INTRA>
0.024088

>  <SCORE.INTRA.DIHEDRAL>
-0.0692678

>  <SCORE.INTRA.DIHEDRAL.0>
7.18044

>  <SCORE.INTRA.POLAR>
0

>  <SCORE.INTRA.POLAR.0>
0

>  <SCORE.INTRA.REPUL>
0

>  <SCORE.INTRA.REPUL.0>
0

>  <SCORE.INTRA.SOLV>
0.122341

>  <SCORE.INTRA.SOLV.lig_0>
-72.0615

>  <SCORE.INTRA.VDW>
-0.00244865

>  <SCORE.INTRA.VDW.0>
-1.54792

>  <SCORE.INTRA.norm>
0.00109491

>  <SCORE.RESTR>
0

>  <SCORE.RESTR.CAVITY>
0

>  <SCORE.RESTR.norm>
0

>  <SCORE.SYSTEM>
0

>  <SCORE.SYSTEM.CONST>
0

>  <SCORE.SYSTEM.DIHEDRAL>
0

>  <SCORE.SYSTEM.SOLV>
0

>  <SCORE.SYSTEM.norm>
0

>  <SCORE.heavy>
22

>  <SCORE.norm>
-0.341087

>  <RMSD>
0.936

$$$$
lig.pdb
 OpenBabel11021811523D
libRbt.so/2013.1/901 2013/11/27
 22 23  0  0  0  0  0  0  0  0999 V2000
   16.8447   -9.5047   25.3606 C   0  0  1  0  0  0  0  0  0  0  0  0
   18.8022   -8.5046   26.5506 C   0  0  1  0  0  0  0  0  0  0  0  0
   18.2062   -6.9975   26.8008 C   0  0  1  0  0  0  0  0  0  0  0  0
   19.4596   -6.0137   27.0375 C   0  0  2  0  0  0  0  0  0  0  0  0
   15.3542   -9.9370   25.7286 C   0  0  1  0  0  0  0  0  0  0  0  0
   15.2927  -11.4766   26.0712 C   0  0  2  0  0  0  0  0  0  0  0  0
   15.7449  -12.3029   24.7693 C   0  0  1  0  0  0  0  0  0  0  0  0
   17.2814  -11.9538   24.3925 C   0  0  1  0  0  0  0  0  0  0  0  0
   17.8099  -12.7187   23.1474 C   0  0  0  0  0  0  0  0  0  0  0  0
   20.2142   -6.5017   28.3696 C   0  0  1  0  0  0  0  0  0  0  0  0
   20.7717   -7.9885   28.0921 C   0  0  0  0  0  0  0  0  0  0  0  0
   19.5740   -8.9898   27.8012 C   0  0  2  0  0  0  0  0  0  0  0  0
   15.6948  -13.7507   24.9993 F   0  0  0  0  0  0  0  0  0  0  0  0
   14.9423   -9.0427   26.9078 N   0  0  0  0  0  0  0  0  0  0  0  0
   19.1894  -12.5281   22.8849 N   0  0  0  0  0  0  0  0  0  0  0  0
   21.4036   -5.6343   28.6423 N   0  0  0  0  0  0  0  0  0  0  0  0
   20.0666  -10.3375   27.5321 N   0  0  0  0  0  0  0  0  0  0  0  0
   17.7858   -9.4623   26.3580 O   0  0  0  0  0  0  0  0  0  0  0  0
   17.4804   -6.5737   25.5638 O   0  0  0  0  0  0  0  0  0  0  0  0
   18.9635   -4.7357   27.2520 O   0  0  0  0  0  0  0  0  0  0  0  0
   14.1747  -11.7400   26.3280 O   0  0  0  0  0  0  0  0  0  0  0  0
   17.3528  -10.3954   24.1814 O   0  0  0  0  0  0  0  0  0  0  0  0
  1  5  1  0  0  0  0
  1 18  1  1  0  0  0
  2 18  1  1  0  0  0
  2  3  1  0  0  0  0
  2 12  1  0  0  0  0
  3 19  1  6  0  0  0
  3  4  1  0  0  0  0
  4 20  1  1  0  0  0
  4 10  1  0  0  0  0
  5  6  1  0  0  0  0
  5 14  1  1  0  0  0
  6 21  1  6  0  0  0
  7 13  1  1  0  0  0
  7  6  1  0  0  0  0
  8  9  1  6  0  0  0
  8  7  1  0  0  0  0
 10 16  1  6  0  0  0
 11 10  1  0  0  0  0
 12 17  1  6  0  0  0
 12 11  1  0  0  0  0
 15  9  1  0  0  0  0
 22  8  1  0  0  0  0
 22  1  1  0  0  0  0
M  END
>  <CHROM.1>
-140.10301828,61.67579685,-173.94625261,17.78609216,-9.46209295,26.09680869
2.07482929,-0.03658902,-2.65861286

>  <Name>
lig.pdb

>  <RI>
0

>  <Rbt.Current_Directory>
/home/itssahil/PROJECTS/Mol_Feturizer/New_Systems/rnas/5bxk

>  <Rbt.Executable>
rbdock ($Id: //depot/dev/client3/rdock/2013.1/src/exe/rbdock.cxx#4 $)

>  <Rbt.Library>
libRbt.so (2013.1, Build901 2013/11/27)

>  <Rbt.Parameter_File>
/export/apps/rDock/src/rDock_2013.1_src/data/scripts/dock_solv.prm

>  <Rbt.Receptor>
prm/pocket_docking_2.prm

>  <SCORE>
-7.21692

>  <SCORE.INTER>
-6.02335

>  <SCORE.INTER.CONST>
1

>  <SCORE.INTER.POLAR>
0

>  <SCORE.INTER.ROT>
3

>  <SCORE.INTER.SOLV>
22.9564

>  <SCORE.INTER.VDW>
-17.2677

>  <SCORE.INTER.norm>
-0.273789

>  <SCORE.INTRA>
-1.19358

>  <SCORE.INTRA.DIHEDRAL>
-1.71626

>  <SCORE.INTRA.DIHEDRAL.0>
7.18044

>  <SCORE.INTRA.POLAR>
0

>  <SCORE.INTRA.POLAR.0>
0

>  <SCORE.INTRA.REPUL>
0

>  <SCORE.INTRA.REPUL.0>
0

>  <SCORE.INTRA.SOLV>
-0.895308

>  <SCORE.INTRA.SOLV.lig_0>
-72.0615

>  <SCORE.INTRA.VDW>
0.112209

>  <SCORE.INTRA.VDW.0>
-1.54792

>  <SCORE.INTRA.norm>
-0.0542534

>  <SCORE.RESTR>
0

>  <SCORE.RESTR.CAVITY>
0

>  <SCORE.RESTR.norm>
0

>  <SCORE.SYSTEM>
0

>  <SCORE.SYSTEM.CONST>
0

>  <SCORE.SYSTEM.DIHEDRAL>
0

>  <SCORE.SYSTEM.SOLV>
0

>  <SCORE.SYSTEM.norm>
0

>  <SCORE.heavy>
22

>  <SCORE.norm>
-0.328042

>  <RMSD>
0.938

$$$$
lig.pdb
 OpenBabel11021811523D
libRbt.so/2013.1/901 2013/11/27
 22 23  0  0  0  0  0  0  0  0999 V2000
   16.6370   -9.4797   25.4269 C   0  0  1  0  0  0  0  0  0  0  0  0
   18.5790   -8.3438   26.5163 C   0  0  1  0  0  0  0  0  0  0  0  0
   17.9493   -6.8397   26.6911 C   0  0  1  0  0  0  0  0  0  0  0  0
   19.1816   -5.8120   26.8340 C   0  0  2  0  0  0  0  0  0  0  0  0
   15.1568   -9.9044   25.8427 C   0  0  1  0  0  0  0  0  0  0  0  0
   15.1248  -11.4100   26.3152 C   0  0  2  0  0  0  0  0  0  0  0  0
   15.5825  -12.3363   25.0844 C   0  0  1  0  0  0  0  0  0  0  0  0
   17.1101  -11.9946   24.6667 C   0  0  1  0  0  0  0  0  0  0  0  0
   17.6435  -12.8535   23.4867 C   0  0  0  0  0  0  0  0  0  0  0  0
   19.9826   -6.1987   28.1723 C   0  0  1  0  0  0  0  0  0  0  0  0
   20.5725   -7.6851   27.9700 C   0  0  0  0  0  0  0  0  0  0  0  0
   19.3950   -8.7322   27.7724 C   0  0  2  0  0  0  0  0  0  0  0  0
   15.5595  -13.7599   25.4370 F   0  0  0  0  0  0  0  0  0  0  0  0
   14.7374   -8.9202   26.9450 N   0  0  0  0  0  0  0  0  0  0  0  0
   18.9991  -12.6117   23.1522 N   0  0  0  0  0  0  0  0  0  0  0  0
   21.1550   -5.2866   28.3599 N   0  0  0  0  0  0  0  0  0  0  0  0
   19.9166  -10.0809   27.5719 N   0  0  0  0  0  0  0  0  0  0  0  0
   17.5840   -9.3367   26.4093 O   0  0  0  0  0  0  0  0  0  0  0  0
   17.1812   -6.5106   25.4509 O   0  0  0  0  0  0  0  0  0  0  0  0
   18.6570   -4.5362   26.9844 O   0  0  0  0  0  0  0  0  0  0  0  0
   14.0134  -11.6696   26.6027 O   0  0  0  0  0  0  0  0  0  0  0  0
   17.1526  -10.4587   24.3235 O   0  0  0  0  0  0  0  0  0  0  0  0
  1  5  1  0  0  0  0
  1 18  1  1  0  0  0
  2 18  1  1  0  0  0
  2  3  1  0  0  0  0
  2 12  1  0  0  0  0
  3 19  1  6  0  0  0
  3  4  1  0  0  0  0
  4 20  1  1  0  0  0
  4 10  1  0  0  0  0
  5  6  1  0  0  0  0
  5 14  1  1  0  0  0
  6 21  1  6  0  0  0
  7 13  1  1  0  0  0
  7  6  1  0  0  0  0
  8  9  1  6  0  0  0
  8  7  1  0  0  0  0
 10 16  1  6  0  0  0
 11 10  1  0  0  0  0
 12 17  1  6  0  0  0
 12 11  1  0  0  0  0
 15  9  1  0  0  0  0
 22  8  1  0  0  0  0
 22  1  1  0  0  0  0
M  END
>  <CHROM.1>
-139.63163473,63.17806218,-177.08231910,17.58006822,-9.35915415,26.15859471
2.06123767,-0.05254817,-2.73656201

>  <Name>
lig.pdb

>  <RI>
0

>  <Rbt.Current_Directory>
/home/itssahil/PROJECTS/Mol_Feturizer/New_Systems/rnas/5bxk

>  <Rbt.Executable>
rbdock ($Id: //depot/dev/client3/rdock/2013.1/src/exe/rbdock.cxx#4 $)

>  <Rbt.Library>
libRbt.so (2013.1, Build901 2013/11/27)

>  <Rbt.Parameter_File>
/export/apps/rDock/src/rDock_2013.1_src/data/scripts/dock_solv.prm

>  <Rbt.Receptor>
prm/pocket_docking_2.prm

>  <SCORE>
-7.17339

>  <SCORE.INTER>
-6.01821

>  <SCORE.INTER.CONST>
1

>  <SCORE.INTER.POLAR>
0

>  <SCORE.INTER.ROT>
3

>  <SCORE.INTER.SOLV>
22.2739

>  <SCORE.INTER.VDW>
-17.0368

>  <SCORE.INTER.norm>
-0.273555

>  <SCORE.INTRA>
-1.15519

>  <SCORE.INTRA.DIHEDRAL>
-1.70797

>  <SCORE.INTRA.DIHEDRAL.0>
7.18044

>  <SCORE.INTRA.POLAR>
0

>  <SCORE.INTRA.POLAR.0>
0

>  <SCORE.INTRA.REPUL>
0

>  <SCORE.INTRA.REPUL.0>
0

>  <SCORE.INTRA.SOLV>
-0.780266

>  <SCORE.INTRA.SOLV.lig_0>
-72.0615

>  <SCORE.INTRA.VDW>
0.0889302

>  <SCORE.INTRA.VDW.0>
-1.54792

>  <SCORE.INTRA.norm>
-0.0525085

>  <SCORE.RESTR>
0

>  <SCORE.RESTR.CAVITY>
0

>  <SCORE.RESTR.norm>
0

>  <SCORE.SYSTEM>
0

>  <SCORE.SYSTEM.CONST>
0

>  <SCORE.SYSTEM.DIHEDRAL>
0

>  <SCORE.SYSTEM.SOLV>
0

>  <SCORE.SYSTEM.norm>
0

>  <SCORE.heavy>
22

>  <SCORE.norm>
-0.326063

>  <RMSD>
0.952

$$$$
lig.pdb
 OpenBabel11021811523D
libRbt.so/2013.1/901 2013/11/27
 22 23  0  0  0  0  0  0  0  0999 V2000
   16.8044   -9.4873   25.1612 C   0  0  1  0  0  0  0  0  0  0  0  0
   18.6731   -8.3719   26.3909 C   0  0  1  0  0  0  0  0  0  0  0  0
   17.9811   -6.8924   26.5368 C   0  0  1  0  0  0  0  0  0  0  0  0
   19.1608   -5.8305   26.8119 C   0  0  2  0  0  0  0  0  0  0  0  0
   15.2526   -9.4381   25.5268 C   0  0  1  0  0  0  0  0  0  0  0  0
   14.8152  -10.7632   26.2644 C   0  0  2  0  0  0  0  0  0  0  0  0
   15.0538  -12.0000   25.2666 C   0  0  1  0  0  0  0  0  0  0  0  0
   16.6298  -12.1400   24.9182 C   0  0  1  0  0  0  0  0  0  0  0  0
   16.9574  -13.3217   23.9639 C   0  0  0  0  0  0  0  0  0  0  0  0
   19.8493   -6.2221   28.2100 C   0  0  1  0  0  0  0  0  0  0  0  0
   20.5037   -7.6846   28.0335 C   0  0  0  0  0  0  0  0  0  0  0  0
   19.3841   -8.7630   27.7086 C   0  0  2  0  0  0  0  0  0  0  0  0
   14.6501  -13.2734   25.8724 F   0  0  0  0  0  0  0  0  0  0  0  0
   15.0700   -8.1815   26.3912 N   0  0  0  0  0  0  0  0  0  0  0  0
   18.3388  -13.4966   23.7009 N   0  0  0  0  0  0  0  0  0  0  0  0
   20.9691   -5.2786   28.5219 N   0  0  0  0  0  0  0  0  0  0  0  0
   19.9658  -10.0900   27.5303 N   0  0  0  0  0  0  0  0  0  0  0  0
   17.7252   -9.3925   26.1740 O   0  0  0  0  0  0  0  0  0  0  0  0
   17.3183   -6.5594   25.2382 O   0  0  0  0  0  0  0  0  0  0  0  0
   18.5830   -4.5753   26.9386 O   0  0  0  0  0  0  0  0  0  0  0  0
   13.6662  -10.6749   26.5038 O   0  0  0  0  0  0  0  0  0  0  0  0
   17.0812  -10.7632   24.3025 O   0  0  0  0  0  0  0  0  0  0  0  0
  1  5  1  0  0  0  0
  1 18  1  1  0  0  0
  2 18  1  1  0  0  0
  2  3  1  0  0  0  0
  2 12  1  0  0  0  0
  3 19  1  6  0  0  0
  3  4  1  0  0  0  0
  4 20  1  1  0  0  0
  4 10  1  0  0  0  0
  5  6  1  0  0  0  0
  5 14  1  1  0  0  0
  6 21  1  6  0  0  0
  7 13  1  1  0  0  0
  7  6  1  0  0  0  0
  8  9  1  6  0  0  0
  8  7  1  0  0  0  0
 10 16  1  6  0  0  0
 11 10  1  0  0  0  0
 12 17  1  6  0  0  0
 12 11  1  0  0  0  0
 15  9  1  0  0  0  0
 22  8  1  0  0  0  0
 22  1  1  0  0  0  0
M  END
>  <CHROM.1>
-115.76714846,57.55578225,-177.11693672,17.41391688,-9.28176322,26.16114568
2.10709801,0.12470482,-2.84336324

>  <Name>
lig.pdb

>  <RI>
0

>  <Rbt.Current_Directory>
/home/itssahil/PROJECTS/Mol_Feturizer/New_Systems/rnas/5bxk

>  <Rbt.Executable>
rbdock ($Id: //depot/dev/client3/rdock/2013.1/src/exe/rbdock.cxx#4 $)

>  <Rbt.Library>
libRbt.so (2013.1, Build901 2013/11/27)

>  <Rbt.Parameter_File>
/export/apps/rDock/src/rDock_2013.1_src/data/scripts/dock_solv.prm

>  <Rbt.Receptor>
prm/pocket_docking_2.prm

>  <SCORE>
-7.50849

>  <SCORE.INTER>
-7.59809

>  <SCORE.INTER.CONST>
1

>  <SCORE.INTER.POLAR>
0

>  <SCORE.INTER.ROT>
3

>  <SCORE.INTER.SOLV>
19.4754

>  <SCORE.INTER.VDW>
-17.1572

>  <SCORE.INTER.norm>
-0.345368

>  <SCORE.INTRA>
0.0895956

>  <SCORE.INTRA.DIHEDRAL>
-0.138509

>  <SCORE.INTRA.DIHEDRAL.0>
7.18044

>  <SCORE.INTRA.POLAR>
0

>  <SCORE.INTRA.POLAR.0>
0

>  <SCORE.INTRA.REPUL>
0

>  <SCORE.INTRA.REPUL.0>
0

>  <SCORE.INTRA.SOLV>
0.263013

>  <SCORE.INTRA.SOLV.lig_0>
-72.0615

>  <SCORE.INTRA.VDW>
0.0273436

>  <SCORE.INTRA.VDW.0>
-1.54792

>  <SCORE.INTRA.norm>
0.00407253

>  <SCORE.RESTR>
0

>  <SCORE.RESTR.CAVITY>
0

>  <SCORE.RESTR.norm>
0

>  <SCORE.SYSTEM>
0

>  <SCORE.SYSTEM.CONST>
0

>  <SCORE.SYSTEM.DIHEDRAL>
0

>  <SCORE.SYSTEM.SOLV>
0

>  <SCORE.SYSTEM.norm>
0

>  <SCORE.heavy>
22

>  <SCORE.norm>
-0.341295

>  <RMSD>
0.958

$$$$
lig.pdb
 OpenBabel11021811523D
libRbt.so/2013.1/901 2013/11/27
 22 23  0  0  0  0  0  0  0  0999 V2000
   16.9326   -8.8624   25.6561 C   0  0  1  0  0  0  0  0  0  0  0  0
   19.0438   -8.3859   26.9068 C   0  0  1  0  0  0  0  0  0  0  0  0
   18.9793   -6.8805   27.5538 C   0  0  1  0  0  0  0  0  0  0  0  0
   20.4944   -6.3586   27.7189 C   0  0  2  0  0  0  0  0  0  0  0  0
   15.3939   -9.2434   25.8328 C   0  0  1  0  0  0  0  0  0  0  0  0
   15.2277  -10.8013   26.0245 C   0  0  2  0  0  0  0  0  0  0  0  0
   15.7749  -11.5347   24.7035 C   0  0  1  0  0  0  0  0  0  0  0  0
   17.3565  -11.2383   24.5150 C   0  0  1  0  0  0  0  0  0  0  0  0
   17.9763  -11.9196   23.2636 C   0  0  0  0  0  0  0  0  0  0  0  0
   21.2345   -7.3383   28.7555 C   0  0  1  0  0  0  0  0  0  0  0  0
   21.2652   -8.8078   28.0937 C   0  0  0  0  0  0  0  0  0  0  0  0
   19.7899   -9.3481   27.8620 C   0  0  2  0  0  0  0  0  0  0  0  0
   15.6358  -12.9922   24.7932 F   0  0  0  0  0  0  0  0  0  0  0  0
   14.9026   -8.4340   27.0424 N   0  0  0  0  0  0  0  0  0  0  0  0
   18.0112  -13.3349   23.3242 N   0  0  0  0  0  0  0  0  0  0  0  0
   22.6583   -6.9164   28.9456 N   0  0  0  0  0  0  0  0  0  0  0  0
   19.8035  -10.6724   27.2479 N   0  0  0  0  0  0  0  0  0  0  0  0
   17.7660   -8.9580   26.7418 O   0  0  0  0  0  0  0  0  0  0  0  0
   18.2594   -5.9913   26.5908 O   0  0  0  0  0  0  0  0  0  0  0  0
   20.4488   -5.0851   28.2680 O   0  0  0  0  0  0  0  0  0  0  0  0
   14.0783  -11.0250   26.1435 O   0  0  0  0  0  0  0  0  0  0  0  0
   17.5197   -9.6735   24.4564 O   0  0  0  0  0  0  0  0  0  0  0  0
  1  5  1  0  0  0  0
  1 18  1  1  0  0  0
  2 18  1  1  0  0  0
  2  3  1  0  0  0  0
  2 12  1  0  0  0  0
  3 19  1  6  0  0  0
  3  4  1  0  0  0  0
  4 20  1  1  0  0  0
  4 10  1  0  0  0  0
  5  6  1  0  0  0  0
  5 14  1  1  0  0  0
  6 21  1  6  0  0  0
  7 13  1  1  0  0  0
  7  6  1  0  0  0  0
  8  9  1  6  0  0  0
  8  7  1  0  0  0  0
 10 16  1  6  0  0  0
 11 10  1  0  0  0  0
 12 17  1  6  0  0  0
 12 11  1  0  0  0  0
 15  9  1  0  0  0  0
 22  8  1  0  0  0  0
 22  1  1  0  0  0  0
M  END
>  <CHROM.1>
-163.38529157,89.11565865,-66.65637738,18.06368636,-9.29606401,26.35466311
2.24692623,0.13953678,-2.64408671

>  <Name>
lig.pdb

>  <RI>
0

>  <Rbt.Current_Directory>
/home/itssahil/PROJECTS/Mol_Feturizer/New_Systems/rnas/5bxk

>  <Rbt.Executable>
rbdock ($Id: //depot/dev/client3/rdock/2013.1/src/exe/rbdock.cxx#4 $)

>  <Rbt.Library>
libRbt.so (2013.1, Build901 2013/11/27)

>  <Rbt.Parameter_File>
/export/apps/rDock/src/rDock_2013.1_src/data/scripts/dock_solv.prm

>  <Rbt.Receptor>
prm/pocket_docking_3.prm

>  <SCORE>
-8.22148

>  <SCORE.INTER>
-7.08149

>  <SCORE.INTER.CONST>
1

>  <SCORE.INTER.POLAR>
0

>  <SCORE.INTER.ROT>
3

>  <SCORE.INTER.SOLV>
20.5127

>  <SCORE.INTER.VDW>
-17.1585

>  <SCORE.INTER.norm>
-0.321886

>  <SCORE.INTRA>
-1.13999

>  <SCORE.INTRA.DIHEDRAL>
-2.22364

>  <SCORE.INTRA.DIHEDRAL.0>
7.18044

>  <SCORE.INTRA.POLAR>
0

>  <SCORE.INTRA.POLAR.0>
0

>  <SCORE.INTRA.REPUL>
0

>  <SCORE.INTRA.REPUL.0>
0

>  <SCORE.INTRA.SOLV>
0.247109

>  <SCORE.INTRA.SOLV.lig_0>
-72.0615

>  <SCORE.INTRA.VDW>
-0.151725

>  <SCORE.INTRA.VDW.0>
-1.54792

>  <SCORE.INTRA.norm>
-0.0518178

>  <SCORE.RESTR>
0

>  <SCORE.RESTR.CAVITY>
0

>  <SCORE.RESTR.norm>
0

>  <SCORE.SYSTEM>
0

>  <SCORE.SYSTEM.CONST>
0

>  <SCORE.SYSTEM.DIHEDRAL>
0

>  <SCORE.SYSTEM.SOLV>
0

>  <SCORE.SYSTEM.norm>
0

>  <SCORE.heavy>
22

>  <SCORE.norm>
-0.373704

>  <RMSD>
0.966

$$$$
lig.pdb
 OpenBabel11021811523D
libRbt.so/2013.1/901 2013/11/27
 22 23  0  0  0  0  0  0  0  0999 V2000
   17.0311   -8.9063   25.5596 C   0  0  1  0  0  0  0  0  0  0  0  0
   19.1218   -8.4338   26.8459 C   0  0  1  0  0  0  0  0  0  0  0  0
   19.0433   -6.9097   27.4459 C   0  0  1  0  0  0  0  0  0  0  0  0
   20.5546   -6.3879   27.6428 C   0  0  2  0  0  0  0  0  0  0  0  0
   15.4782   -9.2308   25.7246 C   0  0  1  0  0  0  0  0  0  0  0  0
   15.2562  -10.7775   25.9476 C   0  0  2  0  0  0  0  0  0  0  0  0
   15.7939  -11.5580   24.6499 C   0  0  1  0  0  0  0  0  0  0  0  0
   17.3870  -11.3198   24.4756 C   0  0  1  0  0  0  0  0  0  0  0  0
   17.9983  -12.0491   23.2472 C   0  0  0  0  0  0  0  0  0  0  0  0
   21.2580   -7.3389   28.7304 C   0  0  1  0  0  0  0  0  0  0  0  0
   21.3034   -8.8274   28.1135 C   0  0  0  0  0  0  0  0  0  0  0  0
   19.8339   -9.3696   27.8519 C   0  0  2  0  0  0  0  0  0  0  0  0
   15.6038  -13.0075   24.7692 F   0  0  0  0  0  0  0  0  0  0  0  0
   15.0003   -8.3787   26.9101 N   0  0  0  0  0  0  0  0  0  0  0  0
   17.9492  -13.4634   23.3216 N   0  0  0  0  0  0  0  0  0  0  0  0
   22.6769   -6.9160   28.9525 N   0  0  0  0  0  0  0  0  0  0  0  0
   19.8612  -10.7115   27.2777 N   0  0  0  0  0  0  0  0  0  0  0  0
   17.8474   -9.0065   26.6579 O   0  0  0  0  0  0  0  0  0  0  0  0
   18.3574   -6.0471   26.4350 O   0  0  0  0  0  0  0  0  0  0  0  0
   20.4971   -5.0986   28.1525 O   0  0  0  0  0  0  0  0  0  0  0  0
   14.0985  -10.9592   26.0565 O   0  0  0  0  0  0  0  0  0  0  0  0
   17.6046   -9.7632   24.3854 O   0  0  0  0  0  0  0  0  0  0  0  0
  1  5  1  0  0  0  0
  1 18  1  1  0  0  0
  2 18  1  1  0  0  0
  2  3  1  0  0  0  0
  2 12  1  0  0  0  0
  3 19  1  6  0  0  0
  3  4  1  0  0  0  0
  4 20  1  1  0  0  0
  4 10  1  0  0  0  0
  5  6  1  0  0  0  0
  5 14  1  1  0  0  0
  6 21  1  6  0  0  0
  7 13  1  1  0  0  0
  7  6  1  0  0  0  0
  8  9  1  6  0  0  0
  8  7  1  0  0  0  0
 10 16  1  6  0  0  0
 11 10  1  0  0  0  0
 12 17  1  6  0  0  0
 12 11  1  0  0  0  0
 15  9  1  0  0  0  0
 22  8  1  0  0  0  0
 22  1  1  0  0  0  0
M  END
>  <CHROM.1>
-160.83666658,86.93029274,-64.94719677,18.10849403,-9.32591376,26.29555149
2.25128495,0.16850011,-2.66807465

>  <Name>
lig.pdb

>  <RI>
0

>  <Rbt.Current_Directory>
/home/itssahil/PROJECTS/Mol_Feturizer/New_Systems/rnas/5bxk

>  <Rbt.Executable>
rbdock ($Id: //depot/dev/client3/rdock/2013.1/src/exe/rbdock.cxx#4 $)

>  <Rbt.Library>
libRbt.so (2013.1, Build901 2013/11/27)

>  <Rbt.Parameter_File>
/export/apps/rDock/src/rDock_2013.1_src/data/scripts/dock_solv.prm

>  <Rbt.Receptor>
prm/pocket_docking_3.prm

>  <SCORE>
-8.31272

>  <SCORE.INTER>
-7.12296

>  <SCORE.INTER.CONST>
1

>  <SCORE.INTER.POLAR>
0

>  <SCORE.INTER.ROT>
3

>  <SCORE.INTER.SOLV>
21.0764

>  <SCORE.INTER.VDW>
-17.3741

>  <SCORE.INTER.norm>
-0.323771

>  <SCORE.INTRA>
-1.18976

>  <SCORE.INTRA.DIHEDRAL>
-2.33114

>  <SCORE.INTRA.DIHEDRAL.0>
7.18044

>  <SCORE.INTRA.POLAR>
0

>  <SCORE.INTRA.POLAR.0>
0

>  <SCORE.INTRA.REPUL>
0

>  <SCORE.INTRA.REPUL.0>
0

>  <SCORE.INTRA.SOLV>
0.231919

>  <SCORE.INTRA.SOLV.lig_0>
-72.0615

>  <SCORE.INTRA.VDW>
-0.140149

>  <SCORE.INTRA.VDW.0>
-1.54792

>  <SCORE.INTRA.norm>
-0.05408

>  <SCORE.RESTR>
0

>  <SCORE.RESTR.CAVITY>
0

>  <SCORE.RESTR.norm>
0

>  <SCORE.SYSTEM>
0

>  <SCORE.SYSTEM.CONST>
0

>  <SCORE.SYSTEM.DIHEDRAL>
0

>  <SCORE.SYSTEM.SOLV>
0

>  <SCORE.SYSTEM.norm>
0

>  <SCORE.heavy>
22

>  <SCORE.norm>
-0.377851

>  <RMSD>
0.987

$$$$
lig.pdb
 OpenBabel11021811523D
libRbt.so/2013.1/901 2013/11/27
 22 23  0  0  0  0  0  0  0  0999 V2000
   16.9480   -8.7887   25.5528 C   0  0  1  0  0  0  0  0  0  0  0  0
   19.0401   -8.3257   26.8401 C   0  0  1  0  0  0  0  0  0  0  0  0
   19.0127   -6.8240   27.4983 C   0  0  1  0  0  0  0  0  0  0  0  0
   20.5404   -6.3441   27.6743 C   0  0  2  0  0  0  0  0  0  0  0  0
   15.3998   -9.1446   25.6956 C   0  0  1  0  0  0  0  0  0  0  0  0
   15.2069  -10.6938   25.9287 C   0  0  2  0  0  0  0  0  0  0  0  0
   15.7820  -11.4736   24.6467 C   0  0  1  0  0  0  0  0  0  0  0  0
   17.3722  -11.2032   24.4959 C   0  0  1  0  0  0  0  0  0  0  0  0
   18.0186  -11.9297   23.2840 C   0  0  0  0  0  0  0  0  0  0  0  0
   21.2491   -7.3510   28.7068 C   0  0  1  0  0  0  0  0  0  0  0  0
   21.2437   -8.8158   28.0339 C   0  0  0  0  0  0  0  0  0  0  0  0
   19.7557   -9.3146   27.7913 C   0  0  2  0  0  0  0  0  0  0  0  0
   15.6205  -12.9258   24.7757 F   0  0  0  0  0  0  0  0  0  0  0  0
   14.8849   -8.2929   26.8657 N   0  0  0  0  0  0  0  0  0  0  0  0
   18.0078  -13.3439   23.3751 N   0  0  0  0  0  0  0  0  0  0  0  0
   22.6827   -6.9688   28.9067 N   0  0  0  0  0  0  0  0  0  0  0  0
   19.7368  -10.6342   27.1671 N   0  0  0  0  0  0  0  0  0  0  0  0
   17.7483   -8.8622   26.6648 O   0  0  0  0  0  0  0  0  0  0  0  0
   18.3215   -5.9087   26.5387 O   0  0  0  0  0  0  0  0  0  0  0  0
   20.5262   -5.0740   28.2330 O   0  0  0  0  0  0  0  0  0  0  0  0
   14.0516  -10.8991   26.0206 O   0  0  0  0  0  0  0  0  0  0  0  0
   17.5584   -9.6431   24.3954 O   0  0  0  0  0  0  0  0  0  0  0  0
  1  5  1  0  0  0  0
  1 18  1  1  0  0  0
  2 18  1  1  0  0  0
  2  3  1  0  0  0  0
  2 12  1  0  0  0  0
  3 19  1  6  0  0  0
  3  4  1  0  0  0  0
  4 20  1  1  0  0  0
  4 10  1  0  0  0  0
  5  6  1  0  0  0  0
  5 14  1  1  0  0  0
  6 21  1  6  0  0  0
  7 13  1  1  0  0  0
  7  6  1  0  0  0  0
  8  9  1  6  0  0  0
  8  7  1  0  0  0  0
 10 16  1  6  0  0  0
 11 10  1  0  0  0  0
 12 17  1  6  0  0  0
 12 11  1  0  0  0  0
 15  9  1  0  0  0  0
 22  8  1  0  0  0  0
 22  1  1  0  0  0  0
M  END
>  <CHROM.1>
-164.85311180,92.43615398,-65.42442237,18.07099671,-9.24796467,26.29405774
2.25760099,0.16688680,-2.66534947

>  <Name>
lig.pdb

>  <RI>
0

>  <Rbt.Current_Directory>
/home/itssahil/PROJECTS/Mol_Feturizer/New_Systems/rnas/5bxk

>  <Rbt.Executable>
rbdock ($Id: //depot/dev/client3/rdock/2013.1/src/exe/rbdock.cxx#4 $)

>  <Rbt.Library>
libRbt.so (2013.1, Build901 2013/11/27)

>  <Rbt.Parameter_File>
/export/apps/rDock/src/rDock_2013.1_src/data/scripts/dock_solv.prm

>  <Rbt.Receptor>
prm/pocket_docking_3.prm

>  <SCORE>
-8.25584

>  <SCORE.INTER>
-7.34927

>  <SCORE.INTER.CONST>
1

>  <SCORE.INTER.POLAR>
0

>  <SCORE.INTER.ROT>
3

>  <SCORE.INTER.SOLV>
20.5675

>  <SCORE.INTER.VDW>
-17.3553

>  <SCORE.INTER.norm>
-0.334058

>  <SCORE.INTRA>
-0.906571

>  <SCORE.INTRA.DIHEDRAL>
-1.84852

>  <SCORE.INTRA.DIHEDRAL.0>
7.18044

>  <SCORE.INTRA.POLAR>
0

>  <SCORE.INTRA.POLAR.0>
0

>  <SCORE.INTRA.REPUL>
0

>  <SCORE.INTRA.REPUL.0>
0

>  <SCORE.INTRA.SOLV>
0.419583

>  <SCORE.INTRA.SOLV.lig_0>
-72.0615

>  <SCORE.INTRA.VDW>
-0.1921

>  <SCORE.INTRA.VDW.0>
-1.54792

>  <SCORE.INTRA.norm>
-0.0412078

>  <SCORE.RESTR>
0

>  <SCORE.RESTR.CAVITY>
0

>  <SCORE.RESTR.norm>
0

>  <SCORE.SYSTEM>
0

>  <SCORE.SYSTEM.CONST>
0

>  <SCORE.SYSTEM.DIHEDRAL>
0

>  <SCORE.SYSTEM.SOLV>
0

>  <SCORE.SYSTEM.norm>
0

>  <SCORE.heavy>
22

>  <SCORE.norm>
-0.375266

>  <RMSD>
0.989

$$$$
lig.pdb
 OpenBabel11021811523D
libRbt.so/2013.1/901 2013/11/27
 22 23  0  0  0  0  0  0  0  0999 V2000
   16.8164   -9.5691   25.1409 C   0  0  1  0  0  0  0  0  0  0  0  0
   18.6830   -8.4640   26.3832 C   0  0  1  0  0  0  0  0  0  0  0  0
   17.9839   -6.9919   26.5659 C   0  0  1  0  0  0  0  0  0  0  0  0
   19.1601   -5.9292   26.8531 C   0  0  2  0  0  0  0  0  0  0  0  0
   15.2653   -9.5141   25.5086 C   0  0  1  0  0  0  0  0  0  0  0  0
   14.8218  -10.8414   26.2386 C   0  0  2  0  0  0  0  0  0  0  0  0
   15.0528  -12.0733   25.2329 C   0  0  1  0  0  0  0  0  0  0  0  0
   16.6277  -12.2193   24.8818 C   0  0  1  0  0  0  0  0  0  0  0  0
   16.9480  -13.3968   23.9198 C   0  0  0  0  0  0  0  0  0  0  0  0
   19.8629   -6.3459   28.2367 C   0  0  1  0  0  0  0  0  0  0  0  0
   20.5239   -7.8007   28.0240 C   0  0  0  0  0  0  0  0  0  0  0  0
   19.4075   -8.8785   27.6863 C   0  0  2  0  0  0  0  0  0  0  0  0
   14.6432  -13.3483   25.8313 F   0  0  0  0  0  0  0  0  0  0  0  0
   15.0903   -8.2619   26.3810 N   0  0  0  0  0  0  0  0  0  0  0  0
   18.3278  -13.5733   23.6492 N   0  0  0  0  0  0  0  0  0  0  0  0
   20.9801   -5.4028   28.5586 N   0  0  0  0  0  0  0  0  0  0  0  0
   19.9950  -10.1981   27.4752 N   0  0  0  0  0  0  0  0  0  0  0  0
   17.7389   -9.4853   26.1531 O   0  0  0  0  0  0  0  0  0  0  0  0
   17.3081   -6.6357   25.2803 O   0  0  0  0  0  0  0  0  0  0  0  0
   18.5764   -4.6802   27.0109 O   0  0  0  0  0  0  0  0  0  0  0  0
   13.6736  -10.7486   26.4799 O   0  0  0  0  0  0  0  0  0  0  0  0
   17.0856  -10.8411   24.2740 O   0  0  0  0  0  0  0  0  0  0  0  0
  1  5  1  0  0  0  0
  1 18  1  1  0  0  0
  2 18  1  1  0  0  0
  2  3  1  0  0  0  0
  2 12  1  0  0  0  0
  3 19  1  6  0  0  0
  3  4  1  0  0  0  0
  4 20  1  1  0  0  0
  4 10  1  0  0  0  0
  5  6  1  0  0  0  0
  5 14  1  1  0  0  0
  6 21  1  6  0  0  0
  7 13  1  1  0  0  0
  7  6  1  0  0  0  0
  8  9  1  6  0  0  0
  8  7  1  0  0  0  0
 10 16  1  6  0  0  0
 11 10  1  0  0  0  0
 12 17  1  6  0  0  0
 12 11  1  0  0  0  0
 15  9  1  0  0  0  0
 22  8  1  0  0  0  0
 22  1  1  0  0  0  0
M  END
>  <CHROM.1>
-115.03592406,58.08023295,-177.39503143,17.41984102,-9.37218699,26.15195822
2.10781994,0.12420220,-2.83130078

>  <Name>
lig.pdb

>  <RI>
0

>  <Rbt.Current_Directory>
/home/itssahil/PROJECTS/Mol_Feturizer/New_Systems/rnas/5bxk

>  <Rbt.Executable>
rbdock ($Id: //depot/dev/client3/rdock/2013.1/src/exe/rbdock.cxx#4 $)

>  <Rbt.Library>
libRbt.so (2013.1, Build901 2013/11/27)

>  <Rbt.Parameter_File>
/export/apps/rDock/src/rDock_2013.1_src/data/scripts/dock_solv.prm

>  <Rbt.Receptor>
prm/pocket_docking_4.prm

>  <SCORE>
-7.56196

>  <SCORE.INTER>
-7.632

>  <SCORE.INTER.CONST>
1

>  <SCORE.INTER.POLAR>
0

>  <SCORE.INTER.ROT>
3

>  <SCORE.INTER.SOLV>
19.5705

>  <SCORE.INTER.VDW>
-17.2115

>  <SCORE.INTER.norm>
-0.346909

>  <SCORE.INTRA>
0.0700396

>  <SCORE.INTRA.DIHEDRAL>
-0.186975

>  <SCORE.INTRA.DIHEDRAL.0>
7.18044

>  <SCORE.INTRA.POLAR>
0

>  <SCORE.INTRA.POLAR.0>
0

>  <SCORE.INTRA.REPUL>
0

>  <SCORE.INTRA.REPUL.0>
0

>  <SCORE.INTRA.SOLV>
0.31412

>  <SCORE.INTRA.SOLV.lig_0>
-72.0615

>  <SCORE.INTRA.VDW>
0.00646711

>  <SCORE.INTRA.VDW.0>
-1.54792

>  <SCORE.INTRA.norm>
0.00318362

>  <SCORE.RESTR>
0

>  <SCORE.RESTR.CAVITY>
0

>  <SCORE.RESTR.norm>
0

>  <SCORE.SYSTEM>
0

>  <SCORE.SYSTEM.CONST>
0

>  <SCORE.SYSTEM.DIHEDRAL>
0

>  <SCORE.SYSTEM.SOLV>
0

>  <SCORE.SYSTEM.norm>
0

>  <SCORE.heavy>
22

>  <SCORE.norm>
-0.343726

>  <RMSD>
0.991

$$$$
lig.pdb
 OpenBabel11021811523D
libRbt.so/2013.1/901 2013/11/27
 22 23  0  0  0  0  0  0  0  0999 V2000
   16.7270   -8.5945   25.5726 C   0  0  1  0  0  0  0  0  0  0  0  0
   18.8321   -8.1357   26.8401 C   0  0  1  0  0  0  0  0  0  0  0  0
   18.8960   -6.6862   27.6045 C   0  0  1  0  0  0  0  0  0  0  0  0
   20.4480   -6.2735   27.7318 C   0  0  2  0  0  0  0  0  0  0  0  0
   15.1813   -8.9633   25.7102 C   0  0  1  0  0  0  0  0  0  0  0  0
   15.0036  -10.5040   26.0037 C   0  0  2  0  0  0  0  0  0  0  0  0
   15.6047  -11.3281   24.7619 C   0  0  1  0  0  0  0  0  0  0  0  0
   17.1935  -11.0444   24.6204 C   0  0  1  0  0  0  0  0  0  0  0  0
   17.8643  -11.8115   23.4474 C   0  0  0  0  0  0  0  0  0  0  0  0
   21.1695   -7.3774   28.6500 C   0  0  1  0  0  0  0  0  0  0  0  0
   21.0735   -8.7878   27.8754 C   0  0  0  0  0  0  0  0  0  0  0  0
   19.5570   -9.2158   27.6783 C   0  0  2  0  0  0  0  0  0  0  0  0
   15.4586  -12.7757   24.9479 F   0  0  0  0  0  0  0  0  0  0  0  0
   14.6410   -8.0712   26.8380 N   0  0  0  0  0  0  0  0  0  0  0  0
   17.8710  -13.2207   23.5970 N   0  0  0  0  0  0  0  0  0  0  0  0
   22.6251   -7.0606   28.7992 N   0  0  0  0  0  0  0  0  0  0  0  0
   19.4556  -10.4845   26.9633 N   0  0  0  0  0  0  0  0  0  0  0  0
   17.5134   -8.6129   26.6968 O   0  0  0  0  0  0  0  0  0  0  0  0
   18.1921   -5.6797   26.7515 O   0  0  0  0  0  0  0  0  0  0  0  0
   20.5111   -5.0481   28.3798 O   0  0  0  0  0  0  0  0  0  0  0  0
   13.8497  -10.7195   26.0892 O   0  0  0  0  0  0  0  0  0  0  0  0
   17.3626   -9.4875   24.4589 O   0  0  0  0  0  0  0  0  0  0  0  0
  1  5  1  0  0  0  0
  1 18  1  1  0  0  0
  2 18  1  1  0  0  0
  2  3  1  0  0  0  0
  2 12  1  0  0  0  0
  3 19  1  6  0  0  0
  3  4  1  0  0  0  0
  4 20  1  1  0  0  0
  4 10  1  0  0  0  0
  5  6  1  0  0  0  0
  5 14  1  1  0  0  0
  6 21  1  6  0  0  0
  7 13  1  1  0  0  0
  7  6  1  0  0  0  0
  8  9  1  6  0  0  0
  8  7  1  0  0  0  0
 10 16  1  6  0  0  0
 11 10  1  0  0  0  0
 12 17  1  6  0  0  0
 12 11  1  0  0  0  0
 15  9  1  0  0  0  0
 22  8  1  0  0  0  0
 22  1  1  0  0  0  0
M  END
>  <CHROM.1>
-169.64738284,102.43038592,-65.53166207,17.90437988,-9.11572648,26.34050334
2.28186915,0.16167081,-2.67800478

>  <Name>
lig.pdb

>  <RI>
0

>  <Rbt.Current_Directory>
/home/itssahil/PROJECTS/Mol_Feturizer/New_Systems/rnas/5bxk

>  <Rbt.Executable>
rbdock ($Id: //depot/dev/client3/rdock/2013.1/src/exe/rbdock.cxx#4 $)

>  <Rbt.Library>
libRbt.so (2013.1, Build901 2013/11/27)

>  <Rbt.Parameter_File>
/export/apps/rDock/src/rDock_2013.1_src/data/scripts/dock_solv.prm

>  <Rbt.Receptor>
prm/pocket_docking_5.prm

>  <SCORE>
-8.14654

>  <SCORE.INTER>
-7.93655

>  <SCORE.INTER.CONST>
1

>  <SCORE.INTER.POLAR>
0

>  <SCORE.INTER.ROT>
3

>  <SCORE.INTER.SOLV>
19.0185

>  <SCORE.INTER.VDW>
-17.2305

>  <SCORE.INTER.norm>
-0.360752

>  <SCORE.INTRA>
-0.209991

>  <SCORE.INTRA.DIHEDRAL>
-0.658391

>  <SCORE.INTRA.DIHEDRAL.0>
7.18044

>  <SCORE.INTRA.POLAR>
0

>  <SCORE.INTRA.POLAR.0>
0

>  <SCORE.INTRA.REPUL>
0

>  <SCORE.INTRA.REPUL.0>
0

>  <SCORE.INTRA.SOLV>
0.9444

>  <SCORE.INTRA.SOLV.lig_0>
-72.0615

>  <SCORE.INTRA.VDW>
-0.352996

>  <SCORE.INTRA.VDW.0>
-1.54792

>  <SCORE.INTRA.norm>
-0.00954504

>  <SCORE.RESTR>
0

>  <SCORE.RESTR.CAVITY>
0

>  <SCORE.RESTR.norm>
0

>  <SCORE.SYSTEM>
0

>  <SCORE.SYSTEM.CONST>
0

>  <SCORE.SYSTEM.DIHEDRAL>
0

>  <SCORE.SYSTEM.SOLV>
0

>  <SCORE.SYSTEM.norm>
0

>  <SCORE.heavy>
22

>  <SCORE.norm>
-0.370297

>  <RMSD>
1.003

$$$$
lig.pdb
 OpenBabel11021811523D
libRbt.so/2013.1/901 2013/11/27
 22 23  0  0  0  0  0  0  0  0999 V2000
   16.7241   -8.5967   25.5507 C   0  0  1  0  0  0  0  0  0  0  0  0
   18.8298   -8.1569   26.8238 C   0  0  1  0  0  0  0  0  0  0  0  0
   18.9576   -6.7334   27.6280 C   0  0  1  0  0  0  0  0  0  0  0  0
   20.5252   -6.3809   27.7432 C   0  0  2  0  0  0  0  0  0  0  0  0
   15.1485   -8.8009   25.6916 C   0  0  1  0  0  0  0  0  0  0  0  0
   14.8187  -10.2820   26.1263 C   0  0  2  0  0  0  0  0  0  0  0  0
   15.3502  -11.2757   24.9808 C   0  0  1  0  0  0  0  0  0  0  0  0
   16.9605  -11.1604   24.8450 C   0  0  1  0  0  0  0  0  0  0  0  0
   17.5663  -12.0978   23.7639 C   0  0  0  0  0  0  0  0  0  0  0  0
   21.2190   -7.5362   28.6185 C   0  0  1  0  0  0  0  0  0  0  0  0
   21.0606   -8.9192   27.8056 C   0  0  0  0  0  0  0  0  0  0  0  0
   19.5268   -9.2863   27.6197 C   0  0  2  0  0  0  0  0  0  0  0  0
   15.0621  -12.6780   25.3004 F   0  0  0  0  0  0  0  0  0  0  0  0
   14.6852   -7.7566   26.7184 N   0  0  0  0  0  0  0  0  0  0  0  0
   18.9829  -12.1116   23.7278 N   0  0  0  0  0  0  0  0  0  0  0  0
   22.6872   -7.2765   28.7543 N   0  0  0  0  0  0  0  0  0  0  0  0
   19.3689  -10.5293   26.8706 N   0  0  0  0  0  0  0  0  0  0  0  0
   17.4927   -8.5819   26.6872 O   0  0  0  0  0  0  0  0  0  0  0  0
   18.2788   -5.6778   26.8149 O   0  0  0  0  0  0  0  0  0  0  0  0
   20.6422   -5.1778   28.4247 O   0  0  0  0  0  0  0  0  0  0  0  0
   13.6484  -10.3769   26.2087 O   0  0  0  0  0  0  0  0  0  0  0  0
   17.2819   -9.6497   24.5398 O   0  0  0  0  0  0  0  0  0  0  0  0
  1  5  1  0  0  0  0
  1 18  1  1  0  0  0
  2 18  1  1  0  0  0
  2  3  1  0  0  0  0
  2 12  1  0  0  0  0
  3 19  1  6  0  0  0
  3  4  1  0  0  0  0
  4 20  1  1  0  0  0
  4 10  1  0  0  0  0
  5  6  1  0  0  0  0
  5 14  1  1  0  0  0
  6 21  1  6  0  0  0
  7 13  1  1  0  0  0
  7  6  1  0  0  0  0
  8  9  1  6  0  0  0
  8  7  1  0  0  0  0
 10 16  1  6  0  0  0
 11 10  1  0  0  0  0
 12 17  1  6  0  0  0
 12 11  1  0  0  0  0
 15  9  1  0  0  0  0
 22  8  1  0  0  0  0
 22  1  1  0  0  0  0
M  END
>  <CHROM.1>
-166.10024123,107.88158929,-173.76744194,17.88970892,-9.07582943,26.40141372
2.36454124,0.14492221,-2.68289547

>  <Name>
lig.pdb

>  <RI>
0

>  <Rbt.Current_Directory>
/home/itssahil/PROJECTS/Mol_Feturizer/New_Systems/rnas/5bxk

>  <Rbt.Executable>
rbdock ($Id: //depot/dev/client3/rdock/2013.1/src/exe/rbdock.cxx#4 $)

>  <Rbt.Library>
libRbt.so (2013.1, Build901 2013/11/27)

>  <Rbt.Parameter_File>
/export/apps/rDock/src/rDock_2013.1_src/data/scripts/dock_solv.prm

>  <Rbt.Receptor>
prm/pocket_docking_4.prm

>  <SCORE>
-7.32549

>  <SCORE.INTER>
-7.8388

>  <SCORE.INTER.CONST>
1

>  <SCORE.INTER.POLAR>
0

>  <SCORE.INTER.ROT>
3

>  <SCORE.INTER.SOLV>
20.3507

>  <SCORE.INTER.VDW>
-17.6094

>  <SCORE.INTER.norm>
-0.356309

>  <SCORE.INTRA>
0.513302

>  <SCORE.INTRA.DIHEDRAL>
0.472741

>  <SCORE.INTRA.DIHEDRAL.0>
7.18044

>  <SCORE.INTRA.POLAR>
0

>  <SCORE.INTRA.POLAR.0>
0

>  <SCORE.INTRA.REPUL>
0

>  <SCORE.INTRA.REPUL.0>
0

>  <SCORE.INTRA.SOLV>
1.45575

>  <SCORE.INTRA.SOLV.lig_0>
-72.0615

>  <SCORE.INTRA.VDW>
-0.450945

>  <SCORE.INTRA.VDW.0>
-1.54792

>  <SCORE.INTRA.norm>
0.0233319

>  <SCORE.RESTR>
0

>  <SCORE.RESTR.CAVITY>
0

>  <SCORE.RESTR.norm>
0

>  <SCORE.SYSTEM>
0

>  <SCORE.SYSTEM.CONST>
0

>  <SCORE.SYSTEM.DIHEDRAL>
0

>  <SCORE.SYSTEM.SOLV>
0

>  <SCORE.SYSTEM.norm>
0

>  <SCORE.heavy>
22

>  <SCORE.norm>
-0.332977

>  <RMSD>
1.011

$$$$
lig.pdb
 OpenBabel11021811523D
libRbt.so/2013.1/901 2013/11/27
 22 23  0  0  0  0  0  0  0  0999 V2000
   16.6642   -8.5808   25.5692 C   0  0  1  0  0  0  0  0  0  0  0  0
   18.7752   -8.1296   26.8296 C   0  0  1  0  0  0  0  0  0  0  0  0
   18.9268   -6.7125   27.6408 C   0  0  1  0  0  0  0  0  0  0  0  0
   20.4992   -6.3770   27.7406 C   0  0  2  0  0  0  0  0  0  0  0  0
   15.0865   -8.7638   25.7146 C   0  0  1  0  0  0  0  0  0  0  0  0
   14.7405  -10.2274   26.1936 C   0  0  2  0  0  0  0  0  0  0  0  0
   15.2621  -11.2610   25.0791 C   0  0  1  0  0  0  0  0  0  0  0  0
   16.8737  -11.1671   24.9415 C   0  0  1  0  0  0  0  0  0  0  0  0
   17.4701  -12.1431   23.8899 C   0  0  0  0  0  0  0  0  0  0  0  0
   21.1905   -7.5448   28.6012 C   0  0  1  0  0  0  0  0  0  0  0  0
   21.0085   -8.9211   27.7821 C   0  0  0  0  0  0  0  0  0  0  0  0
   19.4690   -9.2711   27.6111 C   0  0  2  0  0  0  0  0  0  0  0  0
   14.9588  -12.6498   25.4407 F   0  0  0  0  0  0  0  0  0  0  0  0
   14.6337   -7.6840   26.7089 N   0  0  0  0  0  0  0  0  0  0  0  0
   18.8855  -12.1364   23.8210 N   0  0  0  0  0  0  0  0  0  0  0  0
   22.6627   -7.3013   28.7222 N   0  0  0  0  0  0  0  0  0  0  0  0
   19.2898  -10.5078   26.8564 N   0  0  0  0  0  0  0  0  0  0  0  0
   17.4322   -8.5398   26.7054 O   0  0  0  0  0  0  0  0  0  0  0  0
   18.2502   -5.6450   26.8415 O   0  0  0  0  0  0  0  0  0  0  0  0
   20.6365   -5.1794   28.4278 O   0  0  0  0  0  0  0  0  0  0  0  0
   13.5693  -10.3073   26.2777 O   0  0  0  0  0  0  0  0  0  0  0  0
   17.2114   -9.6698   24.5912 O   0  0  0  0  0  0  0  0  0  0  0  0
  1  5  1  0  0  0  0
  1 18  1  1  0  0  0
  2 18  1  1  0  0  0
  2  3  1  0  0  0  0
  2 12  1  0  0  0  0
  3 19  1  6  0  0  0
  3  4  1  0  0  0  0
  4 20  1  1  0  0  0
  4 10  1  0  0  0  0
  5  6  1  0  0  0  0
  5 14  1  1  0  0  0
  6 21  1  6  0  0  0
  7 13  1  1  0  0  0
  7  6  1  0  0  0  0
  8  9  1  6  0  0  0
  8  7  1  0  0  0  0
 10 16  1  6  0  0  0
 11 10  1  0  0  0  0
 12 17  1  6  0  0  0
 12 11  1  0  0  0  0
 15  9  1  0  0  0  0
 22  8  1  0  0  0  0
 22  1  1  0  0  0  0
M  END
>  <CHROM.1>
-166.34492580,110.20772541,-176.00968579,17.82923937,-9.06072890,26.43699210
2.37793413,0.14535087,-2.70169736

>  <Name>
lig.pdb

>  <RI>
0

>  <Rbt.Current_Directory>
/home/itssahil/PROJECTS/Mol_Feturizer/New_Systems/rnas/5bxk

>  <Rbt.Executable>
rbdock ($Id: //depot/dev/client3/rdock/2013.1/src/exe/rbdock.cxx#4 $)

>  <Rbt.Library>
libRbt.so (2013.1, Build901 2013/11/27)

>  <Rbt.Parameter_File>
/export/apps/rDock/src/rDock_2013.1_src/data/scripts/dock_solv.prm

>  <Rbt.Receptor>
prm/pocket_docking_3.prm

>  <SCORE>
-7.25485

>  <SCORE.INTER>
-7.9361

>  <SCORE.INTER.CONST>
1

>  <SCORE.INTER.POLAR>
0

>  <SCORE.INTER.ROT>
3

>  <SCORE.INTER.SOLV>
19.647

>  <SCORE.INTER.VDW>
-17.4397

>  <SCORE.INTER.norm>
-0.360732

>  <SCORE.INTRA>
0.681249

>  <SCORE.INTRA.DIHEDRAL>
0.598878

>  <SCORE.INTRA.DIHEDRAL.0>
7.18044

>  <SCORE.INTRA.POLAR>
0

>  <SCORE.INTRA.POLAR.0>
0

>  <SCORE.INTRA.REPUL>
0

>  <SCORE.INTRA.REPUL.0>
0

>  <SCORE.INTRA.SOLV>
1.69789

>  <SCORE.INTRA.SOLV.lig_0>
-72.0615

>  <SCORE.INTRA.VDW>
-0.467134

>  <SCORE.INTRA.VDW.0>
-1.54792

>  <SCORE.INTRA.norm>
0.0309658

>  <SCORE.RESTR>
0

>  <SCORE.RESTR.CAVITY>
0

>  <SCORE.RESTR.norm>
0

>  <SCORE.SYSTEM>
0

>  <SCORE.SYSTEM.CONST>
0

>  <SCORE.SYSTEM.DIHEDRAL>
0

>  <SCORE.SYSTEM.SOLV>
0

>  <SCORE.SYSTEM.norm>
0

>  <SCORE.heavy>
22

>  <SCORE.norm>
-0.329766

>  <RMSD>
1.025

$$$$
lig.pdb
 OpenBabel11021811523D
libRbt.so/2013.1/901 2013/11/27
 22 23  0  0  0  0  0  0  0  0999 V2000
   16.6388   -9.5694   25.4924 C   0  0  1  0  0  0  0  0  0  0  0  0
   18.5999   -8.4423   26.5563 C   0  0  1  0  0  0  0  0  0  0  0  0
   17.9580   -6.9455   26.7479 C   0  0  1  0  0  0  0  0  0  0  0  0
   19.1821   -5.9076   26.8885 C   0  0  2  0  0  0  0  0  0  0  0  0
   15.1962  -10.0921   25.9282 C   0  0  1  0  0  0  0  0  0  0  0  0
   15.2520  -11.6248   26.3013 C   0  0  2  0  0  0  0  0  0  0  0  0
   15.7076  -12.4465   24.9976 C   0  0  1  0  0  0  0  0  0  0  0  0
   17.2013  -12.0040   24.5527 C   0  0  1  0  0  0  0  0  0  0  0  0
   17.7311  -12.7580   23.3016 C   0  0  0  0  0  0  0  0  0  0  0  0
   19.9978   -6.2971   28.2170 C   0  0  1  0  0  0  0  0  0  0  0  0
   20.5995   -7.7765   27.9984 C   0  0  0  0  0  0  0  0  0  0  0  0
   19.4300   -8.8328   27.8027 C   0  0  2  0  0  0  0  0  0  0  0  0
   15.7641  -13.8892   25.2561 F   0  0  0  0  0  0  0  0  0  0  0  0
   14.7715   -9.2026   27.1064 N   0  0  0  0  0  0  0  0  0  0  0  0
   19.0929  -12.5079   23.0001 N   0  0  0  0  0  0  0  0  0  0  0  0
   21.1633   -5.3758   28.4018 N   0  0  0  0  0  0  0  0  0  0  0  0
   19.9621  -10.1751   27.5874 N   0  0  0  0  0  0  0  0  0  0  0  0
   17.6132   -9.4435   26.4501 O   0  0  0  0  0  0  0  0  0  0  0  0
   17.1766   -6.6140   25.5168 O   0  0  0  0  0  0  0  0  0  0  0  0
   18.6472   -4.6379   27.0530 O   0  0  0  0  0  0  0  0  0  0  0  0
   14.1651  -11.9566   26.6078 O   0  0  0  0  0  0  0  0  0  0  0  0
   17.1592  -10.4490   24.3103 O   0  0  0  0  0  0  0  0  0  0  0  0
  1  5  1  0  0  0  0
  1 18  1  1  0  0  0
  2 18  1  1  0  0  0
  2  3  1  0  0  0  0
  2 12  1  0  0  0  0
  3 19  1  6  0  0  0
  3  4  1  0  0  0  0
  4 20  1  1  0  0  0
  4 10  1  0  0  0  0
  5  6  1  0  0  0  0
  5 14  1  1  0  0  0
  6 21  1  6  0  0  0
  7 13  1  1  0  0  0
  7  6  1  0  0  0  0
  8  9  1  6  0  0  0
  8  7  1  0  0  0  0
 10 16  1  6  0  0  0
 11 10  1  0  0  0  0
 12 17  1  6  0  0  0
 12 11  1  0  0  0  0
 15  9  1  0  0  0  0
 22  8  1  0  0  0  0
 22  1  1  0  0  0  0
M  END
>  <CHROM.1>
-142.60003033,61.44445905,-172.42387802,17.63388788,-9.45924782,26.15889183
2.05086416,-0.10708597,-2.69090652

>  <Name>
lig.pdb

>  <RI>
0

>  <Rbt.Current_Directory>
/home/itssahil/PROJECTS/Mol_Feturizer/New_Systems/rnas/5bxk

>  <Rbt.Executable>
rbdock ($Id: //depot/dev/client3/rdock/2013.1/src/exe/rbdock.cxx#4 $)

>  <Rbt.Library>
libRbt.so (2013.1, Build901 2013/11/27)

>  <Rbt.Parameter_File>
/export/apps/rDock/src/rDock_2013.1_src/data/scripts/dock_solv.prm

>  <Rbt.Receptor>
prm/pocket_docking_2.prm

>  <SCORE>
-7.37374

>  <SCORE.INTER>
-5.97998

>  <SCORE.INTER.CONST>
1

>  <SCORE.INTER.POLAR>
0

>  <SCORE.INTER.ROT>
3

>  <SCORE.INTER.SOLV>
22.629

>  <SCORE.INTER.VDW>
-17.1296

>  <SCORE.INTER.norm>
-0.271817

>  <SCORE.INTRA>
-1.39406

>  <SCORE.INTRA.DIHEDRAL>
-2.05321

>  <SCORE.INTRA.DIHEDRAL.0>
7.18044

>  <SCORE.INTRA.POLAR>
0

>  <SCORE.INTRA.POLAR.0>
0

>  <SCORE.INTRA.REPUL>
0

>  <SCORE.INTRA.REPUL.0>
0

>  <SCORE.INTRA.SOLV>
-1.02612

>  <SCORE.INTRA.SOLV.lig_0>
-72.0615

>  <SCORE.INTRA.VDW>
0.145601

>  <SCORE.INTRA.VDW.0>
-1.54792

>  <SCORE.INTRA.norm>
-0.0633666

>  <SCORE.RESTR>
0.000303299

>  <SCORE.RESTR.CAVITY>
0.000303299

>  <SCORE.RESTR.norm>
1.37863e-05

>  <SCORE.SYSTEM>
0

>  <SCORE.SYSTEM.CONST>
0

>  <SCORE.SYSTEM.DIHEDRAL>
0

>  <SCORE.SYSTEM.SOLV>
0

>  <SCORE.SYSTEM.norm>
0

>  <SCORE.heavy>
22

>  <SCORE.norm>
-0.33517

>  <RMSD>
1.027

$$$$
lig.pdb
 OpenBabel11021811523D
libRbt.so/2013.1/901 2013/11/27
 22 23  0  0  0  0  0  0  0  0999 V2000
   16.7847   -8.6719   25.6602 C   0  0  1  0  0  0  0  0  0  0  0  0
   18.9151   -8.2494   26.8977 C   0  0  1  0  0  0  0  0  0  0  0  0
   18.9770   -6.8227   27.7038 C   0  0  1  0  0  0  0  0  0  0  0  0
   20.5266   -6.3970   27.8172 C   0  0  2  0  0  0  0  0  0  0  0  0
   15.2404   -9.0357   25.8238 C   0  0  1  0  0  0  0  0  0  0  0  0
   15.0590  -10.5850   26.0652 C   0  0  2  0  0  0  0  0  0  0  0  0
   15.6223  -11.3667   24.7791 C   0  0  1  0  0  0  0  0  0  0  0  0
   17.2091  -11.0881   24.6074 C   0  0  1  0  0  0  0  0  0  0  0  0
   17.8443  -11.8158   23.3903 C   0  0  0  0  0  0  0  0  0  0  0  0
   21.2752   -7.5196   28.6897 C   0  0  1  0  0  0  0  0  0  0  0  0
   21.1808   -8.9074   27.8751 C   0  0  0  0  0  0  0  0  0  0  0  0
   19.6656   -9.3459   27.6910 C   0  0  2  0  0  0  0  0  0  0  0  0
   15.4705  -12.8192   24.9157 F   0  0  0  0  0  0  0  0  0  0  0  0
   14.7354   -8.1822   26.9969 N   0  0  0  0  0  0  0  0  0  0  0  0
   17.8734  -13.2282   23.5023 N   0  0  0  0  0  0  0  0  0  0  0  0
   22.7298   -7.1914   28.8238 N   0  0  0  0  0  0  0  0  0  0  0  0
   19.5652  -10.5939   26.9402 N   0  0  0  0  0  0  0  0  0  0  0  0
   17.5992   -8.7367   26.7625 O   0  0  0  0  0  0  0  0  0  0  0  0
   18.2481   -5.7990   26.8932 O   0  0  0  0  0  0  0  0  0  0  0  0
   20.5880   -5.1907   28.5003 O   0  0  0  0  0  0  0  0  0  0  0  0
   13.9061  -10.7962   26.1723 O   0  0  0  0  0  0  0  0  0  0  0  0
   17.3853   -9.5274   24.4987 O   0  0  0  0  0  0  0  0  0  0  0  0
  1  5  1  0  0  0  0
  1 18  1  1  0  0  0
  2 18  1  1  0  0  0
  2  3  1  0  0  0  0
  2 12  1  0  0  0  0
  3 19  1  6  0  0  0
  3  4  1  0  0  0  0
  4 20  1  1  0  0  0
  4 10  1  0  0  0  0
  5  6  1  0  0  0  0
  5 14  1  1  0  0  0
  6 21  1  6  0  0  0
  7 13  1  1  0  0  0
  7  6  1  0  0  0  0
  8  9  1  6  0  0  0
  8  7  1  0  0  0  0
 10 16  1  6  0  0  0
 11 10  1  0  0  0  0
 12 17  1  6  0  0  0
 12 11  1  0  0  0  0
 15  9  1  0  0  0  0
 22  8  1  0  0  0  0
 22  1  1  0  0  0  0
M  END
>  <CHROM.1>
-168.25295266,101.13498446,-66.96150120,17.96566118,-9.20546483,26.38527555
2.28892205,0.14185446,-2.64470215

>  <Name>
lig.pdb

>  <RI>
0

>  <Rbt.Current_Directory>
/home/itssahil/PROJECTS/Mol_Feturizer/New_Systems/rnas/5bxk

>  <Rbt.Executable>
rbdock ($Id: //depot/dev/client3/rdock/2013.1/src/exe/rbdock.cxx#4 $)

>  <Rbt.Library>
libRbt.so (2013.1, Build901 2013/11/27)

>  <Rbt.Parameter_File>
/export/apps/rDock/src/rDock_2013.1_src/data/scripts/dock_solv.prm

>  <Rbt.Receptor>
prm/pocket_docking_4.prm

>  <SCORE>
-8.17007

>  <SCORE.INTER>
-7.93192

>  <SCORE.INTER.CONST>
1

>  <SCORE.INTER.POLAR>
0

>  <SCORE.INTER.ROT>
3

>  <SCORE.INTER.SOLV>
19.2503

>  <SCORE.INTER.VDW>
-17.3047

>  <SCORE.INTER.norm>
-0.360542

>  <SCORE.INTRA>
-0.238146

>  <SCORE.INTRA.DIHEDRAL>
-0.656

>  <SCORE.INTRA.DIHEDRAL.0>
7.18044

>  <SCORE.INTRA.POLAR>
0

>  <SCORE.INTRA.POLAR.0>
0

>  <SCORE.INTRA.REPUL>
0

>  <SCORE.INTRA.REPUL.0>
0

>  <SCORE.INTRA.SOLV>
0.843938

>  <SCORE.INTRA.SOLV.lig_0>
-72.0615

>  <SCORE.INTRA.VDW>
-0.332115

>  <SCORE.INTRA.VDW.0>
-1.54792

>  <SCORE.INTRA.norm>
-0.0108248

>  <SCORE.RESTR>
0

>  <SCORE.RESTR.CAVITY>
0

>  <SCORE.RESTR.norm>
0

>  <SCORE.SYSTEM>
0

>  <SCORE.SYSTEM.CONST>
0

>  <SCORE.SYSTEM.DIHEDRAL>
0

>  <SCORE.SYSTEM.SOLV>
0

>  <SCORE.SYSTEM.norm>
0

>  <SCORE.heavy>
22

>  <SCORE.norm>
-0.371367

>  <RMSD>
1.049

$$$$
lig.pdb
 OpenBabel11021811523D
libRbt.so/2013.1/901 2013/11/27
 22 23  0  0  0  0  0  0  0  0999 V2000
   17.0855   -9.3666   25.5260 C   0  0  1  0  0  0  0  0  0  0  0  0
   19.1254   -8.6703   26.7919 C   0  0  1  0  0  0  0  0  0  0  0  0
   18.8183   -7.1264   27.2517 C   0  0  1  0  0  0  0  0  0  0  0  0
   20.2367   -6.3965   27.4765 C   0  0  2  0  0  0  0  0  0  0  0  0
   15.5782   -9.8455   25.7328 C   0  0  1  0  0  0  0  0  0  0  0  0
   15.5147  -11.4123   25.9127 C   0  0  2  0  0  0  0  0  0  0  0  0
   16.0769  -12.0986   24.5728 C   0  0  1  0  0  0  0  0  0  0  0  0
   17.6321  -11.7013   24.3526 C   0  0  1  0  0  0  0  0  0  0  0  0
   18.2652  -12.3316   23.0812 C   0  0  0  0  0  0  0  0  0  0  0  0
   20.9881   -7.1562   28.6766 C   0  0  1  0  0  0  0  0  0  0  0  0
   21.2589   -8.6706   28.1953 C   0  0  0  0  0  0  0  0  0  0  0  0
   19.8884   -9.4205   27.9099 C   0  0  2  0  0  0  0  0  0  0  0  0
   16.0318  -13.5626   24.6513 F   0  0  0  0  0  0  0  0  0  0  0  0
   15.0644   -9.0789   26.9608 N   0  0  0  0  0  0  0  0  0  0  0  0
   18.4537  -13.7342   23.1546 N   0  0  0  0  0  0  0  0  0  0  0  0
   22.3260   -6.5341   28.9305 N   0  0  0  0  0  0  0  0  0  0  0  0
   20.1201  -10.7890   27.4575 N   0  0  0  0  0  0  0  0  0  0  0  0
   17.9475   -9.4187   26.5922 O   0  0  0  0  0  0  0  0  0  0  0  0
   18.0908   -6.4455   26.1366 O   0  0  0  0  0  0  0  0  0  0  0  0
   19.9856   -5.0891   27.8679 O   0  0  0  0  0  0  0  0  0  0  0  0
   14.3846  -11.7090   26.0547 O   0  0  0  0  0  0  0  0  0  0  0  0
   17.6952  -10.1290   24.3058 O   0  0  0  0  0  0  0  0  0  0  0  0
  1  5  1  0  0  0  0
  1 18  1  1  0  0  0
  2 18  1  1  0  0  0
  2  3  1  0  0  0  0
  2 12  1  0  0  0  0
  3 19  1  6  0  0  0
  3  4  1  0  0  0  0
  4 20  1  1  0  0  0
  4 10  1  0  0  0  0
  5  6  1  0  0  0  0
  5 14  1  1  0  0  0
  6 21  1  6  0  0  0
  7 13  1  1  0  0  0
  7  6  1  0  0  0  0
  8  9  1  6  0  0  0
  8  7  1  0  0  0  0
 10 16  1  6  0  0  0
 11 10  1  0  0  0  0
 12 17  1  6  0  0  0
 12 11  1  0  0  0  0
 15  9  1  0  0  0  0
 22  8  1  0  0  0  0
 22  1  1  0  0  0  0
M  END
>  <CHROM.1>
-156.63491861,76.41677781,-69.74526684,18.15807401,-9.61600104,26.22132426
2.14397771,0.10870879,-2.65145750

>  <Name>
lig.pdb

>  <RI>
0

>  <Rbt.Current_Directory>
/home/itssahil/PROJECTS/Mol_Feturizer/New_Systems/rnas/5bxk

>  <Rbt.Executable>
rbdock ($Id: //depot/dev/client3/rdock/2013.1/src/exe/rbdock.cxx#4 $)

>  <Rbt.Library>
libRbt.so (2013.1, Build901 2013/11/27)

>  <Rbt.Parameter_File>
/export/apps/rDock/src/rDock_2013.1_src/data/scripts/dock_solv.prm

>  <Rbt.Receptor>
prm/pocket_docking_4.prm

>  <SCORE>
-8.51129

>  <SCORE.INTER>
-6.79847

>  <SCORE.INTER.CONST>
1

>  <SCORE.INTER.POLAR>
0

>  <SCORE.INTER.ROT>
3

>  <SCORE.INTER.SOLV>
21.181

>  <SCORE.INTER.VDW>
-17.1926

>  <SCORE.INTER.norm>
-0.309021

>  <SCORE.INTRA>
-1.71827

>  <SCORE.INTRA.DIHEDRAL>
-3.175

>  <SCORE.INTRA.DIHEDRAL.0>
7.18044

>  <SCORE.INTRA.POLAR>
0

>  <SCORE.INTRA.POLAR.0>
0

>  <SCORE.INTRA.REPUL>
0

>  <SCORE.INTRA.REPUL.0>
0

>  <SCORE.INTRA.SOLV>
-0.139188

>  <SCORE.INTRA.SOLV.lig_0>
-72.0615

>  <SCORE.INTRA.VDW>
-0.0611712

>  <SCORE.INTRA.VDW.0>
-1.54792

>  <SCORE.INTRA.norm>
-0.078103

>  <SCORE.RESTR>
0.00544322

>  <SCORE.RESTR.CAVITY>
0.00544322

>  <SCORE.RESTR.norm>
0.000247419

>  <SCORE.SYSTEM>
0

>  <SCORE.SYSTEM.CONST>
0

>  <SCORE.SYSTEM.DIHEDRAL>
0

>  <SCORE.SYSTEM.SOLV>
0

>  <SCORE.SYSTEM.norm>
0

>  <SCORE.heavy>
22

>  <SCORE.norm>
-0.386877

>  <RMSD>
1.069

$$$$
lig.pdb
 OpenBabel11021811523D
libRbt.so/2013.1/901 2013/11/27
 22 23  0  0  0  0  0  0  0  0999 V2000
   16.5392   -8.5123   25.5991 C   0  0  1  0  0  0  0  0  0  0  0  0
   18.6520   -8.0598   26.8560 C   0  0  1  0  0  0  0  0  0  0  0  0
   18.8253   -6.6812   27.7271 C   0  0  1  0  0  0  0  0  0  0  0  0
   20.4011   -6.3584   27.8151 C   0  0  2  0  0  0  0  0  0  0  0  0
   14.9627   -8.7073   25.7431 C   0  0  1  0  0  0  0  0  0  0  0  0
   14.6279  -10.1704   26.2315 C   0  0  2  0  0  0  0  0  0  0  0  0
   15.1600  -11.2072   25.1250 C   0  0  1  0  0  0  0  0  0  0  0  0
   16.7709  -11.1010   24.9895 C   0  0  1  0  0  0  0  0  0  0  0  0
   17.3772  -12.0792   23.9455 C   0  0  0  0  0  0  0  0  0  0  0  0
   21.0999   -7.5670   28.6107 C   0  0  1  0  0  0  0  0  0  0  0  0
   20.8964   -8.9042   27.7339 C   0  0  0  0  0  0  0  0  0  0  0  0
   19.3522   -9.2385   27.5736 C   0  0  2  0  0  0  0  0  0  0  0  0
   14.8674  -12.5959   25.4955 F   0  0  0  0  0  0  0  0  0  0  0  0
   14.4994   -7.6245   26.7293 N   0  0  0  0  0  0  0  0  0  0  0  0
   18.7937  -12.0902   23.9067 N   0  0  0  0  0  0  0  0  0  0  0  0
   22.5754   -7.3365   28.7174 N   0  0  0  0  0  0  0  0  0  0  0  0
   19.1534  -10.4393   26.7675 N   0  0  0  0  0  0  0  0  0  0  0  0
   17.3048   -8.4573   26.7364 O   0  0  0  0  0  0  0  0  0  0  0  0
   18.1415   -5.5756   26.9880 O   0  0  0  0  0  0  0  0  0  0  0  0
   20.5566   -5.1935   28.5529 O   0  0  0  0  0  0  0  0  0  0  0  0
   13.4572  -10.2593   26.3141 O   0  0  0  0  0  0  0  0  0  0  0  0
   17.0970   -9.6034   24.6295 O   0  0  0  0  0  0  0  0  0  0  0  0
  1  5  1  0  0  0  0
  1 18  1  1  0  0  0
  2 18  1  1  0  0  0
  2  3  1  0  0  0  0
  2 12  1  0  0  0  0
  3 19  1  6  0  0  0
  3  4  1  0  0  0  0
  4 20  1  1  0  0  0
  4 10  1  0  0  0  0
  5  6  1  0  0  0  0
  5 14  1  1  0  0  0
  6 21  1  6  0  0  0
  7 13  1  1  0  0  0
  7  6  1  0  0  0  0
  8  9  1  6  0  0  0
  8  7  1  0  0  0  0
 10 16  1  6  0  0  0
 11 10  1  0  0  0  0
 12 17  1  6  0  0  0
 12 11  1  0  0  0  0
 15  9  1  0  0  0  0
 22  8  1  0  0  0  0
 22  1  1  0  0  0  0
M  END
>  <CHROM.1>
-167.68691918,114.09595412,-174.23145557,17.72112542,-9.01678949,26.47497427
2.38348939,0.14192687,-2.69531798

>  <Name>
lig.pdb

>  <RI>
0

>  <Rbt.Current_Directory>
/home/itssahil/PROJECTS/Mol_Feturizer/New_Systems/rnas/5bxk

>  <Rbt.Executable>
rbdock ($Id: //depot/dev/client3/rdock/2013.1/src/exe/rbdock.cxx#4 $)

>  <Rbt.Library>
libRbt.so (2013.1, Build901 2013/11/27)

>  <Rbt.Parameter_File>
/export/apps/rDock/src/rDock_2013.1_src/data/scripts/dock_solv.prm

>  <Rbt.Receptor>
prm/pocket_docking_3.prm

>  <SCORE>
-7.22658

>  <SCORE.INTER>
-8.19235

>  <SCORE.INTER.CONST>
1

>  <SCORE.INTER.POLAR>
0

>  <SCORE.INTER.ROT>
3

>  <SCORE.INTER.SOLV>
18.6214

>  <SCORE.INTER.VDW>
-17.2687

>  <SCORE.INTER.norm>
-0.37238

>  <SCORE.INTRA>
0.965773

>  <SCORE.INTRA.DIHEDRAL>
0.800507

>  <SCORE.INTRA.DIHEDRAL.0>
7.18044

>  <SCORE.INTRA.POLAR>
0

>  <SCORE.INTRA.POLAR.0>
0

>  <SCORE.INTRA.REPUL>
0

>  <SCORE.INTRA.REPUL.0>
0

>  <SCORE.INTRA.SOLV>
2.07551

>  <SCORE.INTRA.SOLV.lig_0>
-72.0615

>  <SCORE.INTRA.VDW>
-0.472235

>  <SCORE.INTRA.VDW.0>
-1.54792

>  <SCORE.INTRA.norm>
0.0438988

>  <SCORE.RESTR>
0

>  <SCORE.RESTR.CAVITY>
0

>  <SCORE.RESTR.norm>
0

>  <SCORE.SYSTEM>
0

>  <SCORE.SYSTEM.CONST>
0

>  <SCORE.SYSTEM.DIHEDRAL>
0

>  <SCORE.SYSTEM.SOLV>
0

>  <SCORE.SYSTEM.norm>
0

>  <SCORE.heavy>
22

>  <SCORE.norm>
-0.328481

>  <RMSD>
1.070

$$$$
lig.pdb
 OpenBabel11021811523D
libRbt.so/2013.1/901 2013/11/27
 22 23  0  0  0  0  0  0  0  0999 V2000
   16.7339   -8.6477   25.6126 C   0  0  1  0  0  0  0  0  0  0  0  0
   18.8611   -8.2359   26.8591 C   0  0  1  0  0  0  0  0  0  0  0  0
   18.9509   -6.8014   27.6486 C   0  0  1  0  0  0  0  0  0  0  0  0
   20.5087   -6.4075   27.7624 C   0  0  2  0  0  0  0  0  0  0  0  0
   15.1887   -9.0136   25.7626 C   0  0  1  0  0  0  0  0  0  0  0  0
   15.0084  -10.5602   26.0211 C   0  0  2  0  0  0  0  0  0  0  0  0
   15.5887  -11.3563   24.7515 C   0  0  1  0  0  0  0  0  0  0  0  0
   17.1766  -11.0756   24.5949 C   0  0  1  0  0  0  0  0  0  0  0  0
   17.8280  -11.8166   23.3945 C   0  0  0  0  0  0  0  0  0  0  0  0
   21.2304   -7.5354   28.6507 C   0  0  1  0  0  0  0  0  0  0  0  0
   21.1090   -8.9304   27.8521 C   0  0  0  0  0  0  0  0  0  0  0  0
   19.5854   -9.3387   27.6679 C   0  0  2  0  0  0  0  0  0  0  0  0
   15.4390  -12.8074   24.9043 F   0  0  0  0  0  0  0  0  0  0  0  0
   14.6678   -8.1470   26.9191 N   0  0  0  0  0  0  0  0  0  0  0  0
   17.8195  -13.2295   23.5040 N   0  0  0  0  0  0  0  0  0  0  0  0
   22.6912   -7.2367   28.7859 N   0  0  0  0  0  0  0  0  0  0  0  0
   19.4609  -10.5931   26.9315 N   0  0  0  0  0  0  0  0  0  0  0  0
   17.5356   -8.6966   26.7250 O   0  0  0  0  0  0  0  0  0  0  0  0
   18.2466   -5.7721   26.8234 O   0  0  0  0  0  0  0  0  0  0  0  0
   20.5937   -5.1948   28.4314 O   0  0  0  0  0  0  0  0  0  0  0  0
   13.8548  -10.7732   26.1174 O   0  0  0  0  0  0  0  0  0  0  0  0
   17.3502   -9.5159   24.4689 O   0  0  0  0  0  0  0  0  0  0  0  0
  1  5  1  0  0  0  0
  1 18  1  1  0  0  0
  2 18  1  1  0  0  0
  2  3  1  0  0  0  0
  2 12  1  0  0  0  0
  3 19  1  6  0  0  0
  3  4  1  0  0  0  0
  4 20  1  1  0  0  0
  4 10  1  0  0  0  0
  5  6  1  0  0  0  0
  5 14  1  1  0  0  0
  6 21  1  6  0  0  0
  7 13  1  1  0  0  0
  7  6  1  0  0  0  0
  8  9  1  6  0  0  0
  8  7  1  0  0  0  0
 10 16  1  6  0  0  0
 11 10  1  0  0  0  0
 12 17  1  6  0  0  0
 12 11  1  0  0  0  0
 15  9  1  0  0  0  0
 22  8  1  0  0  0  0
 22  1  1  0  0  0  0
M  END
>  <CHROM.1>
-170.09335268,102.32849655,-64.97423809,17.92214979,-9.19674986,26.34814689
2.29517622,0.15246909,-2.65744310

>  <Name>
lig.pdb

>  <RI>
0

>  <Rbt.Current_Directory>
/home/itssahil/PROJECTS/Mol_Feturizer/New_Systems/rnas/5bxk

>  <Rbt.Executable>
rbdock ($Id: //depot/dev/client3/rdock/2013.1/src/exe/rbdock.cxx#4 $)

>  <Rbt.Library>
libRbt.so (2013.1, Build901 2013/11/27)

>  <Rbt.Parameter_File>
/export/apps/rDock/src/rDock_2013.1_src/data/scripts/dock_solv.prm

>  <Rbt.Receptor>
prm/pocket_docking_3.prm

>  <SCORE>
-8.21577

>  <SCORE.INTER>
-7.96955

>  <SCORE.INTER.CONST>
1

>  <SCORE.INTER.POLAR>
0

>  <SCORE.INTER.ROT>
3

>  <SCORE.INTER.SOLV>
19.377

>  <SCORE.INTER.VDW>
-17.372

>  <SCORE.INTER.norm>
-0.362252

>  <SCORE.INTRA>
-0.24622

>  <SCORE.INTRA.DIHEDRAL>
-0.735445

>  <SCORE.INTRA.DIHEDRAL.0>
7.18044

>  <SCORE.INTRA.POLAR>
0

>  <SCORE.INTRA.POLAR.0>
0

>  <SCORE.INTRA.REPUL>
0

>  <SCORE.INTRA.REPUL.0>
0

>  <SCORE.INTRA.SOLV>
0.940203

>  <SCORE.INTRA.SOLV.lig_0>
-72.0615

>  <SCORE.INTRA.VDW>
-0.3486

>  <SCORE.INTRA.VDW.0>
-1.54792

>  <SCORE.INTRA.norm>
-0.0111918

>  <SCORE.RESTR>
0

>  <SCORE.RESTR.CAVITY>
0

>  <SCORE.RESTR.norm>
0

>  <SCORE.SYSTEM>
0

>  <SCORE.SYSTEM.CONST>
0

>  <SCORE.SYSTEM.DIHEDRAL>
0

>  <SCORE.SYSTEM.SOLV>
0

>  <SCORE.SYSTEM.norm>
0

>  <SCORE.heavy>
22

>  <SCORE.norm>
-0.373444

>  <RMSD>
1.070

$$$$
lig.pdb
 OpenBabel11021811523D
libRbt.so/2013.1/901 2013/11/27
 22 23  0  0  0  0  0  0  0  0999 V2000
   16.5762   -8.4806   25.5512 C   0  0  1  0  0  0  0  0  0  0  0  0
   18.6969   -8.0410   26.7994 C   0  0  1  0  0  0  0  0  0  0  0  0
   18.9003   -6.6464   27.6380 C   0  0  1  0  0  0  0  0  0  0  0  0
   20.4828   -6.3565   27.7197 C   0  0  2  0  0  0  0  0  0  0  0  0
   14.9976   -8.6558   25.6970 C   0  0  1  0  0  0  0  0  0  0  0  0
   14.6466  -10.1053   26.2139 C   0  0  2  0  0  0  0  0  0  0  0  0
   15.1686  -11.1694   25.1288 C   0  0  1  0  0  0  0  0  0  0  0  0
   16.7807  -11.0832   24.9932 C   0  0  1  0  0  0  0  0  0  0  0  0
   17.3775  -12.0884   23.9695 C   0  0  0  0  0  0  0  0  0  0  0  0
   21.1545   -7.5612   28.5441 C   0  0  1  0  0  0  0  0  0  0  0  0
   20.9217   -8.9139   27.6989 C   0  0  0  0  0  0  0  0  0  0  0  0
   19.3706   -9.2177   27.5452 C   0  0  2  0  0  0  0  0  0  0  0  0
   14.8608  -12.5474   25.5264 F   0  0  0  0  0  0  0  0  0  0  0  0
   14.5450   -7.5487   26.6610 N   0  0  0  0  0  0  0  0  0  0  0  0
   18.7928  -12.0814   23.8988 N   0  0  0  0  0  0  0  0  0  0  0  0
   22.6346   -7.3609   28.6467 N   0  0  0  0  0  0  0  0  0  0  0  0
   19.1455  -10.4324   26.7674 N   0  0  0  0  0  0  0  0  0  0  0  0
   17.3412   -8.4113   26.6881 O   0  0  0  0  0  0  0  0  0  0  0  0
   18.2414   -5.5436   26.8725 O   0  0  0  0  0  0  0  0  0  0  0  0
   20.6639   -5.1783   28.4299 O   0  0  0  0  0  0  0  0  0  0  0  0
   13.4749  -10.1799   26.2968 O   0  0  0  0  0  0  0  0  0  0  0  0
   17.1233   -9.5967   24.6040 O   0  0  0  0  0  0  0  0  0  0  0  0
  1  5  1  0  0  0  0
  1 18  1  1  0  0  0
  2 18  1  1  0  0  0
  2  3  1  0  0  0  0
  2 12  1  0  0  0  0
  3 19  1  6  0  0  0
  3  4  1  0  0  0  0
  4 20  1  1  0  0  0
  4 10  1  0  0  0  0
  5  6  1  0  0  0  0
  5 14  1  1  0  0  0
  6 21  1  6  0  0  0
  7 13  1  1  0  0  0
  7  6  1  0  0  0  0
  8  9  1  6  0  0  0
  8  7  1  0  0  0  0
 10 16  1  6  0  0  0
 11 10  1  0  0  0  0
 12 17  1  6  0  0  0
 12 11  1  0  0  0  0
 15  9  1  0  0  0  0
 22  8  1  0  0  0  0
 22  1  1  0  0  0  0
M  END
>  <CHROM.1>
-168.49811380,114.34329398,-176.36429409,17.75678982,-8.99066019,26.43466761
2.39918812,0.14814013,-2.71638608

>  <Name>
lig.pdb

>  <RI>
0

>  <Rbt.Current_Directory>
/home/itssahil/PROJECTS/Mol_Feturizer/New_Systems/rnas/5bxk

>  <Rbt.Executable>
rbdock ($Id: //depot/dev/client3/rdock/2013.1/src/exe/rbdock.cxx#4 $)

>  <Rbt.Library>
libRbt.so (2013.1, Build901 2013/11/27)

>  <Rbt.Parameter_File>
/export/apps/rDock/src/rDock_2013.1_src/data/scripts/dock_solv.prm

>  <Rbt.Receptor>
prm/pocket_docking_4.prm

>  <SCORE>
-7.23439

>  <SCORE.INTER>
-8.14955

>  <SCORE.INTER.CONST>
1

>  <SCORE.INTER.POLAR>
0

>  <SCORE.INTER.ROT>
3

>  <SCORE.INTER.SOLV>
19.0575

>  <SCORE.INTER.VDW>
-17.3855

>  <SCORE.INTER.norm>
-0.370434

>  <SCORE.INTRA>
0.91516

>  <SCORE.INTRA.DIHEDRAL>
0.656247

>  <SCORE.INTRA.DIHEDRAL.0>
7.18044

>  <SCORE.INTRA.POLAR>
0

>  <SCORE.INTRA.POLAR.0>
0

>  <SCORE.INTRA.REPUL>
0

>  <SCORE.INTRA.REPUL.0>
0

>  <SCORE.INTRA.SOLV>
2.10552

>  <SCORE.INTRA.SOLV.lig_0>
-72.0615

>  <SCORE.INTRA.VDW>
-0.465722

>  <SCORE.INTRA.VDW.0>
-1.54792

>  <SCORE.INTRA.norm>
0.0415982

>  <SCORE.RESTR>
0

>  <SCORE.RESTR.CAVITY>
0

>  <SCORE.RESTR.norm>
0

>  <SCORE.SYSTEM>
0

>  <SCORE.SYSTEM.CONST>
0

>  <SCORE.SYSTEM.DIHEDRAL>
0

>  <SCORE.SYSTEM.SOLV>
0

>  <SCORE.SYSTEM.norm>
0

>  <SCORE.heavy>
22

>  <SCORE.norm>
-0.328836

>  <RMSD>
1.085

$$$$
lig.pdb
 OpenBabel11021811523D
libRbt.so/2013.1/901 2013/11/27
 22 23  0  0  0  0  0  0  0  0999 V2000
   17.4099   -9.2495   25.4181 C   0  0  1  0  0  0  0  0  0  0  0  0
   19.2285   -8.3725   26.8919 C   0  0  1  0  0  0  0  0  0  0  0  0
   19.0187   -6.8275   27.3998 C   0  0  1  0  0  0  0  0  0  0  0  0
   20.4782   -6.2101   27.6893 C   0  0  2  0  0  0  0  0  0  0  0  0
   15.9020   -9.7683   25.3865 C   0  0  1  0  0  0  0  0  0  0  0  0
   15.8209  -11.2651   25.8808 C   0  0  2  0  0  0  0  0  0  0  0  0
   16.6834  -12.1768   24.8771 C   0  0  1  0  0  0  0  0  0  0  0  0
   18.2421  -11.7374   24.9240 C   0  0  1  0  0  0  0  0  0  0  0  0
   19.1571  -12.5758   23.9889 C   0  0  0  0  0  0  0  0  0  0  0  0
   21.1381   -7.0634   28.8803 C   0  0  1  0  0  0  0  0  0  0  0  0
   21.3144   -8.5757   28.3510 C   0  0  0  0  0  0  0  0  0  0  0  0
   19.9030   -9.2143   28.0016 C   0  0  2  0  0  0  0  0  0  0  0  0
   16.6420  -13.5930   25.2568 F   0  0  0  0  0  0  0  0  0  0  0  0
   15.1111   -8.7983   26.2771 N   0  0  0  0  0  0  0  0  0  0  0  0
   18.7871  -12.5401   22.6215 N   0  0  0  0  0  0  0  0  0  0  0  0
   22.5088   -6.5487   29.1928 N   0  0  0  0  0  0  0  0  0  0  0  0
   20.0499  -10.5794   27.5054 N   0  0  0  0  0  0  0  0  0  0  0  0
   18.0068   -9.0266   26.6332 O   0  0  0  0  0  0  0  0  0  0  0  0
   18.3746   -6.0575   26.2914 O   0  0  0  0  0  0  0  0  0  0  0  0
   20.3094   -4.9024   28.1217 O   0  0  0  0  0  0  0  0  0  0  0  0
   14.6924  -11.5960   25.8314 O   0  0  0  0  0  0  0  0  0  0  0  0
   18.2924  -10.2078   24.5550 O   0  0  0  0  0  0  0  0  0  0  0  0
  1  5  1  0  0  0  0
  1 18  1  1  0  0  0
  2 18  1  1  0  0  0
  2  3  1  0  0  0  0
  2 12  1  0  0  0  0
  3 19  1  6  0  0  0
  3  4  1  0  0  0  0
  4 20  1  1  0  0  0
  4 10  1  0  0  0  0
  5  6  1  0  0  0  0
  5 14  1  1  0  0  0
  6 21  1  6  0  0  0
  7 13  1  1  0  0  0
  7  6  1  0  0  0  0
  8  9  1  6  0  0  0
  8  7  1  0  0  0  0
 10 16  1  6  0  0  0
 11 10  1  0  0  0  0
 12 17  1  6  0  0  0
 12 11  1  0  0  0  0
 15  9  1  0  0  0  0
 22  8  1  0  0  0  0
 22  1  1  0  0  0  0
M  END
>  <CHROM.1>
-168.70382794,100.77194124,58.23174026,18.45950676,-9.44432848,26.33705255
2.12410730,0.19922866,-2.70942196

>  <Name>
lig.pdb

>  <RI>
0

>  <Rbt.Current_Directory>
/home/itssahil/PROJECTS/Mol_Feturizer/New_Systems/rnas/5bxk

>  <Rbt.Executable>
rbdock ($Id: //depot/dev/client3/rdock/2013.1/src/exe/rbdock.cxx#4 $)

>  <Rbt.Library>
libRbt.so (2013.1, Build901 2013/11/27)

>  <Rbt.Parameter_File>
/export/apps/rDock/src/rDock_2013.1_src/data/scripts/dock_solv.prm

>  <Rbt.Receptor>
prm/pocket_docking_2.prm

>  <SCORE>
-5.31948

>  <SCORE.INTER>
-4.98192

>  <SCORE.INTER.CONST>
1

>  <SCORE.INTER.POLAR>
0

>  <SCORE.INTER.ROT>
3

>  <SCORE.INTER.SOLV>
24.0473

>  <SCORE.INTER.VDW>
-16.937

>  <SCORE.INTER.norm>
-0.226451

>  <SCORE.INTRA>
-0.337566

>  <SCORE.INTRA.DIHEDRAL>
-0.920932

>  <SCORE.INTRA.DIHEDRAL.0>
7.18044

>  <SCORE.INTRA.POLAR>
0

>  <SCORE.INTRA.POLAR.0>
0

>  <SCORE.INTRA.REPUL>
0

>  <SCORE.INTRA.REPUL.0>
0

>  <SCORE.INTRA.SOLV>
1.02622

>  <SCORE.INTRA.SOLV.lig_0>
-72.0615

>  <SCORE.INTRA.VDW>
-0.390208

>  <SCORE.INTRA.VDW.0>
-1.54792

>  <SCORE.INTRA.norm>
-0.0153439

>  <SCORE.RESTR>
0

>  <SCORE.RESTR.CAVITY>
0

>  <SCORE.RESTR.norm>
0

>  <SCORE.SYSTEM>
0

>  <SCORE.SYSTEM.CONST>
0

>  <SCORE.SYSTEM.DIHEDRAL>
0

>  <SCORE.SYSTEM.SOLV>
0

>  <SCORE.SYSTEM.norm>
0

>  <SCORE.heavy>
22

>  <SCORE.norm>
-0.241795

>  <RMSD>
1.090

$$$$
lig.pdb
 OpenBabel11021811523D
libRbt.so/2013.1/901 2013/11/27
 22 23  0  0  0  0  0  0  0  0999 V2000
   16.5009   -9.3905   25.6345 C   0  0  1  0  0  0  0  0  0  0  0  0
   18.4668   -8.2553   26.6809 C   0  0  1  0  0  0  0  0  0  0  0  0
   17.8990   -6.7293   26.8764 C   0  0  1  0  0  0  0  0  0  0  0  0
   19.1718   -5.7452   26.9574 C   0  0  2  0  0  0  0  0  0  0  0  0
   15.1623  -10.1885   25.9743 C   0  0  1  0  0  0  0  0  0  0  0  0
   15.4696  -11.7228   26.1808 C   0  0  2  0  0  0  0  0  0  0  0  0
   16.0649  -12.3087   24.8080 C   0  0  1  0  0  0  0  0  0  0  0  0
   17.4674  -11.5799   24.4518 C   0  0  1  0  0  0  0  0  0  0  0  0
   18.1242  -12.0931   23.1405 C   0  0  0  0  0  0  0  0  0  0  0  0
   20.0193   -6.1549   28.2597 C   0  0  1  0  0  0  0  0  0  0  0  0
   20.5469   -7.6620   28.0384 C   0  0  0  0  0  0  0  0  0  0  0  0
   19.3256   -8.6676   27.9005 C   0  0  2  0  0  0  0  0  0  0  0  0
   16.3588  -13.7421   24.9103 F   0  0  0  0  0  0  0  0  0  0  0  0
   14.5870   -9.5171   27.2305 N   0  0  0  0  0  0  0  0  0  0  0  0
   18.5781  -13.4343   23.1987 N   0  0  0  0  0  0  0  0  0  0  0  0
   21.2303   -5.2841   28.3886 N   0  0  0  0  0  0  0  0  0  0  0  0
   19.7898  -10.0346   27.6834 N   0  0  0  0  0  0  0  0  0  0  0  0
   17.4338   -9.2129   26.6248 O   0  0  0  0  0  0  0  0  0  0  0  0
   17.0868   -6.3779   25.6709 O   0  0  0  0  0  0  0  0  0  0  0  0
   18.6997   -4.4512   27.1249 O   0  0  0  0  0  0  0  0  0  0  0  0
   14.4509  -12.2608   26.4218 O   0  0  0  0  0  0  0  0  0  0  0  0
   17.1690  -10.0359   24.3779 O   0  0  0  0  0  0  0  0  0  0  0  0
  1  5  1  0  0  0  0
  1 18  1  1  0  0  0
  2 18  1  1  0  0  0
  2  3  1  0  0  0  0
  2 12  1  0  0  0  0
  3 19  1  6  0  0  0
  3  4  1  0  0  0  0
  4 20  1  1  0  0  0
  4 10  1  0  0  0  0
  5  6  1  0  0  0  0
  5 14  1  1  0  0  0
  6 21  1  6  0  0  0
  7 13  1  1  0  0  0
  7  6  1  0  0  0  0
  8  9  1  6  0  0  0
  8  7  1  0  0  0  0
 10 16  1  6  0  0  0
 11 10  1  0  0  0  0
 12 17  1  6  0  0  0
 12 11  1  0  0  0  0
 15  9  1  0  0  0  0
 22  8  1  0  0  0  0
 22  1  1  0  0  0  0
M  END
>  <CHROM.1>
-160.18480764,68.70379922,-67.12228724,17.66919549,-9.36261815,26.17501911
1.99844382,-0.07268308,-2.70017446

>  <Name>
lig.pdb

>  <RI>
0

>  <Rbt.Current_Directory>
/home/itssahil/PROJECTS/Mol_Feturizer/New_Systems/rnas/5bxk

>  <Rbt.Executable>
rbdock ($Id: //depot/dev/client3/rdock/2013.1/src/exe/rbdock.cxx#4 $)

>  <Rbt.Library>
libRbt.so (2013.1, Build901 2013/11/27)

>  <Rbt.Parameter_File>
/export/apps/rDock/src/rDock_2013.1_src/data/scripts/dock_solv.prm

>  <Rbt.Receptor>
prm/pocket_docking_2.prm

>  <SCORE>
-9.06234

>  <SCORE.INTER>
-6.4365

>  <SCORE.INTER.CONST>
1

>  <SCORE.INTER.POLAR>
0

>  <SCORE.INTER.ROT>
3

>  <SCORE.INTER.SOLV>
19.7268

>  <SCORE.INTER.VDW>
-16.4666

>  <SCORE.INTER.norm>
-0.292568

>  <SCORE.INTRA>
-2.62583

>  <SCORE.INTRA.DIHEDRAL>
-4.79381

>  <SCORE.INTRA.DIHEDRAL.0>
7.18044

>  <SCORE.INTRA.POLAR>
0

>  <SCORE.INTRA.POLAR.0>
0

>  <SCORE.INTRA.REPUL>
0

>  <SCORE.INTRA.REPUL.0>
0

>  <SCORE.INTRA.SOLV>
-0.56015

>  <SCORE.INTRA.SOLV.lig_0>
-72.0615

>  <SCORE.INTRA.VDW>
0.0511482

>  <SCORE.INTRA.VDW.0>
-1.54792

>  <SCORE.INTRA.norm>
-0.119356

>  <SCORE.RESTR>
0

>  <SCORE.RESTR.CAVITY>
0

>  <SCORE.RESTR.norm>
0

>  <SCORE.SYSTEM>
0

>  <SCORE.SYSTEM.CONST>
0

>  <SCORE.SYSTEM.DIHEDRAL>
0

>  <SCORE.SYSTEM.SOLV>
0

>  <SCORE.SYSTEM.norm>
0

>  <SCORE.heavy>
22

>  <SCORE.norm>
-0.411924

>  <RMSD>
1.116

$$$$
lig.pdb
 OpenBabel11021811523D
libRbt.so/2013.1/901 2013/11/27
 22 23  0  0  0  0  0  0  0  0999 V2000
   16.5522   -9.5093   25.6377 C   0  0  1  0  0  0  0  0  0  0  0  0
   18.5001   -8.3546   26.6964 C   0  0  1  0  0  0  0  0  0  0  0  0
   17.9135   -6.8376   26.9054 C   0  0  1  0  0  0  0  0  0  0  0  0
   19.1740   -5.8385   26.9945 C   0  0  2  0  0  0  0  0  0  0  0  0
   15.2271  -10.3342   25.9660 C   0  0  1  0  0  0  0  0  0  0  0  0
   15.5612  -11.8648   26.1590 C   0  0  2  0  0  0  0  0  0  0  0  0
   16.1708  -12.4270   24.7826 C   0  0  1  0  0  0  0  0  0  0  0  0
   17.5610  -11.6700   24.4375 C   0  0  1  0  0  0  0  0  0  0  0  0
   18.2307  -12.1590   23.1234 C   0  0  0  0  0  0  0  0  0  0  0  0
   20.0273   -6.2491   28.2927 C   0  0  1  0  0  0  0  0  0  0  0  0
   20.5733   -7.7475   28.0581 C   0  0  0  0  0  0  0  0  0  0  0  0
   19.3645   -8.7669   27.9119 C   0  0  2  0  0  0  0  0  0  0  0  0
   16.4900  -13.8558   24.8725 F   0  0  0  0  0  0  0  0  0  0  0  0
   14.6363   -9.6851   27.2266 N   0  0  0  0  0  0  0  0  0  0  0  0
   18.7426  -13.4790   23.1830 N   0  0  0  0  0  0  0  0  0  0  0  0
   21.2275   -5.3645   28.4287 N   0  0  0  0  0  0  0  0  0  0  0  0
   19.8454  -10.1261   27.6828 N   0  0  0  0  0  0  0  0  0  0  0  0
   17.4790   -9.3244   26.6324 O   0  0  0  0  0  0  0  0  0  0  0  0
   17.0963   -6.4857   25.7034 O   0  0  0  0  0  0  0  0  0  0  0  0
   18.6861   -4.5519   27.1734 O   0  0  0  0  0  0  0  0  0  0  0  0
   14.5516  -12.4231   26.3919 O   0  0  0  0  0  0  0  0  0  0  0  0
   17.2353  -10.1309   24.3772 O   0  0  0  0  0  0  0  0  0  0  0  0
  1  5  1  0  0  0  0
  1 18  1  1  0  0  0
  2 18  1  1  0  0  0
  2  3  1  0  0  0  0
  2 12  1  0  0  0  0
  3 19  1  6  0  0  0
  3  4  1  0  0  0  0
  4 20  1  1  0  0  0
  4 10  1  0  0  0  0
  5  6  1  0  0  0  0
  5 14  1  1  0  0  0
  6 21  1  6  0  0  0
  7 13  1  1  0  0  0
  7  6  1  0  0  0  0
  8  9  1  6  0  0  0
  8  7  1  0  0  0  0
 10 16  1  6  0  0  0
 11 10  1  0  0  0  0
 12 17  1  6  0  0  0
 12 11  1  0  0  0  0
 15  9  1  0  0  0  0
 22  8  1  0  0  0  0
 22  1  1  0  0  0  0
M  END
>  <CHROM.1>
-160.64320589,69.07981810,-68.84508878,17.72661262,-9.46906504,26.17916058
1.98451510,-0.07838270,-2.69289677

>  <Name>
lig.pdb

>  <RI>
0

>  <Rbt.Current_Directory>
/home/itssahil/PROJECTS/Mol_Feturizer/New_Systems/rnas/5bxk

>  <Rbt.Executable>
rbdock ($Id: //depot/dev/client3/rdock/2013.1/src/exe/rbdock.cxx#4 $)

>  <Rbt.Library>
libRbt.so (2013.1, Build901 2013/11/27)

>  <Rbt.Parameter_File>
/export/apps/rDock/src/rDock_2013.1_src/data/scripts/dock_solv.prm

>  <Rbt.Receptor>
prm/pocket_docking_2.prm

>  <SCORE>
-9.08894

>  <SCORE.INTER>
-6.46524

>  <SCORE.INTER.CONST>
1

>  <SCORE.INTER.POLAR>
0

>  <SCORE.INTER.ROT>
3

>  <SCORE.INTER.SOLV>
19.595

>  <SCORE.INTER.VDW>
-16.4418

>  <SCORE.INTER.norm>
-0.293875

>  <SCORE.INTRA>
-2.6237

>  <SCORE.INTRA.DIHEDRAL>
-4.73683

>  <SCORE.INTRA.DIHEDRAL.0>
7.18044

>  <SCORE.INTRA.POLAR>
0

>  <SCORE.INTRA.POLAR.0>
0

>  <SCORE.INTRA.REPUL>
0

>  <SCORE.INTRA.REPUL.0>
0

>  <SCORE.INTRA.SOLV>
-0.588095

>  <SCORE.INTRA.SOLV.lig_0>
-72.0615

>  <SCORE.INTRA.VDW>
0.0387651

>  <SCORE.INTRA.VDW.0>
-1.54792

>  <SCORE.INTRA.norm>
-0.119259

>  <SCORE.RESTR>
0

>  <SCORE.RESTR.CAVITY>
0

>  <SCORE.RESTR.norm>
0

>  <SCORE.SYSTEM>
0

>  <SCORE.SYSTEM.CONST>
0

>  <SCORE.SYSTEM.DIHEDRAL>
0

>  <SCORE.SYSTEM.SOLV>
0

>  <SCORE.SYSTEM.norm>
0

>  <SCORE.heavy>
22

>  <SCORE.norm>
-0.413134

>  <RMSD>
1.178

$$$$
lig.pdb
 OpenBabel11021811523D
libRbt.so/2013.1/901 2013/11/27
 22 23  0  0  0  0  0  0  0  0999 V2000
   16.4661   -9.5406   25.6380 C   0  0  1  0  0  0  0  0  0  0  0  0
   18.4241   -8.3656   26.6550 C   0  0  1  0  0  0  0  0  0  0  0  0
   17.8422   -6.8421   26.8274 C   0  0  1  0  0  0  0  0  0  0  0  0
   19.1056   -5.8443   26.8840 C   0  0  2  0  0  0  0  0  0  0  0  0
   15.1610  -10.3897   25.9842 C   0  0  1  0  0  0  0  0  0  0  0  0
   15.5267  -11.9127   26.1788 C   0  0  2  0  0  0  0  0  0  0  0  0
   16.1316  -12.4682   24.7975 C   0  0  1  0  0  0  0  0  0  0  0  0
   17.5029  -11.6858   24.4341 C   0  0  1  0  0  0  0  0  0  0  0  0
   18.1670  -12.1668   23.1142 C   0  0  0  0  0  0  0  0  0  0  0  0
   19.9645   -6.2231   28.1882 C   0  0  1  0  0  0  0  0  0  0  0  0
   20.5057   -7.7285   27.9900 C   0  0  0  0  0  0  0  0  0  0  0  0
   19.2937   -8.7483   27.8765 C   0  0  2  0  0  0  0  0  0  0  0  0
   16.4793  -13.8903   24.8888 F   0  0  0  0  0  0  0  0  0  0  0  0
   14.5720   -9.7473   27.2492 N   0  0  0  0  0  0  0  0  0  0  0  0
   18.6448  -13.5004   23.1510 N   0  0  0  0  0  0  0  0  0  0  0  0
   21.1675   -5.3383   28.2951 N   0  0  0  0  0  0  0  0  0  0  0  0
   19.7702  -10.1142   27.6804 N   0  0  0  0  0  0  0  0  0  0  0  0
   17.4003   -9.3341   26.6214 O   0  0  0  0  0  0  0  0  0  0  0  0
   17.0197   -6.5196   25.6208 O   0  0  0  0  0  0  0  0  0  0  0  0
   18.6216   -4.5523   27.0319 O   0  0  0  0  0  0  0  0  0  0  0  0
   14.5308  -12.4896   26.4251 O   0  0  0  0  0  0  0  0  0  0  0  0
   17.1468  -10.1536   24.3720 O   0  0  0  0  0  0  0  0  0  0  0  0
  1  5  1  0  0  0  0
  1 18  1  1  0  0  0
  2 18  1  1  0  0  0
  2  3  1  0  0  0  0
  2 12  1  0  0  0  0
  3 19  1  6  0  0  0
  3  4  1  0  0  0  0
  4 20  1  1  0  0  0
  4 10  1  0  0  0  0
  5  6  1  0  0  0  0
  5 14  1  1  0  0  0
  6 21  1  6  0  0  0
  7 13  1  1  0  0  0
  7  6  1  0  0  0  0
  8  9  1  6  0  0  0
  8  7  1  0  0  0  0
 10 16  1  6  0  0  0
 11 10  1  0  0  0  0
 12 17  1  6  0  0  0
 12 11  1  0  0  0  0
 15  9  1  0  0  0  0
 22  8  1  0  0  0  0
 22  1  1  0  0  0  0
M  END
>  <CHROM.1>
-162.36446500,68.91776616,-65.81575317,17.66367017,-9.48648634,26.14630099
1.98462524,-0.10286538,-2.70055307

>  <Name>
lig.pdb

>  <RI>
0

>  <Rbt.Current_Directory>
/home/itssahil/PROJECTS/Mol_Feturizer/New_Systems/rnas/5bxk

>  <Rbt.Executable>
rbdock ($Id: //depot/dev/client3/rdock/2013.1/src/exe/rbdock.cxx#4 $)

>  <Rbt.Library>
libRbt.so (2013.1, Build901 2013/11/27)

>  <Rbt.Parameter_File>
/export/apps/rDock/src/rDock_2013.1_src/data/scripts/dock_solv.prm

>  <Rbt.Receptor>
prm/pocket_docking_2.prm

>  <SCORE>
-9.06322

>  <SCORE.INTER>
-6.24573

>  <SCORE.INTER.CONST>
1

>  <SCORE.INTER.POLAR>
0

>  <SCORE.INTER.ROT>
3

>  <SCORE.INTER.SOLV>
20.0258

>  <SCORE.INTER.VDW>
-16.4391

>  <SCORE.INTER.norm>
-0.283897

>  <SCORE.INTRA>
-2.8175

>  <SCORE.INTRA.DIHEDRAL>
-5.16398

>  <SCORE.INTRA.DIHEDRAL.0>
7.18044

>  <SCORE.INTRA.POLAR>
0

>  <SCORE.INTRA.POLAR.0>
0

>  <SCORE.INTRA.REPUL>
0

>  <SCORE.INTRA.REPUL.0>
0

>  <SCORE.INTRA.SOLV>
-0.588244

>  <SCORE.INTRA.SOLV.lig_0>
-72.0615

>  <SCORE.INTRA.VDW>
0.0586166

>  <SCORE.INTRA.VDW.0>
-1.54792

>  <SCORE.INTRA.norm>
-0.128068

>  <SCORE.RESTR>
0

>  <SCORE.RESTR.CAVITY>
0

>  <SCORE.RESTR.norm>
0

>  <SCORE.SYSTEM>
0

>  <SCORE.SYSTEM.CONST>
0

>  <SCORE.SYSTEM.DIHEDRAL>
0

>  <SCORE.SYSTEM.SOLV>
0

>  <SCORE.SYSTEM.norm>
0

>  <SCORE.heavy>
22

>  <SCORE.norm>
-0.411965

>  <RMSD>
1.240

$$$$
lig.pdb
 OpenBabel11021811523D
libRbt.so/2013.1/901 2013/11/27
 22 23  0  0  0  0  0  0  0  0999 V2000
   16.5618   -9.5673   25.5811 C   0  0  1  0  0  0  0  0  0  0  0  0
   18.5130   -8.3951   26.6142 C   0  0  1  0  0  0  0  0  0  0  0  0
   17.9056   -6.8784   26.7550 C   0  0  1  0  0  0  0  0  0  0  0  0
   19.1532   -5.8626   26.8385 C   0  0  2  0  0  0  0  0  0  0  0  0
   15.2352  -10.3778   25.9377 C   0  0  1  0  0  0  0  0  0  0  0  0
   15.5601  -11.9086   26.1441 C   0  0  2  0  0  0  0  0  0  0  0  0
   16.1458  -12.4917   24.7660 C   0  0  1  0  0  0  0  0  0  0  0  0
   17.5368  -11.7498   24.3925 C   0  0  1  0  0  0  0  0  0  0  0  0
   18.1840  -12.2594   23.0749 C   0  0  0  0  0  0  0  0  0  0  0  0
   19.9789   -6.2173   28.1705 C   0  0  1  0  0  0  0  0  0  0  0  0
   20.5462   -7.7168   28.0026 C   0  0  0  0  0  0  0  0  0  0  0  0
   19.3520   -8.7544   27.8640 C   0  0  2  0  0  0  0  0  0  0  0  0
   16.4551  -13.9219   24.8682 F   0  0  0  0  0  0  0  0  0  0  0  0
   14.6673   -9.7093   27.1988 N   0  0  0  0  0  0  0  0  0  0  0  0
   18.5994  -13.6137   23.1122 N   0  0  0  0  0  0  0  0  0  0  0  0
   21.1661   -5.3149   28.3036 N   0  0  0  0  0  0  0  0  0  0  0  0
   19.8526  -10.1153   27.6949 N   0  0  0  0  0  0  0  0  0  0  0  0
   17.5040   -9.3781   26.5604 O   0  0  0  0  0  0  0  0  0  0  0  0
   17.1143   -6.5785   25.5220 O   0  0  0  0  0  0  0  0  0  0  0  0
   18.6475   -4.5761   26.9598 O   0  0  0  0  0  0  0  0  0  0  0  0
   14.5496  -12.4561   26.3978 O   0  0  0  0  0  0  0  0  0  0  0  0
   17.2222  -10.2090   24.3185 O   0  0  0  0  0  0  0  0  0  0  0  0
  1  5  1  0  0  0  0
  1 18  1  1  0  0  0
  2 18  1  1  0  0  0
  2  3  1  0  0  0  0
  2 12  1  0  0  0  0
  3 19  1  6  0  0  0
  3  4  1  0  0  0  0
  4 20  1  1  0  0  0
  4 10  1  0  0  0  0
  5  6  1  0  0  0  0
  5 14  1  1  0  0  0
  6 21  1  6  0  0  0
  7 13  1  1  0  0  0
  7  6  1  0  0  0  0
  8  9  1  6  0  0  0
  8  7  1  0  0  0  0
 10 16  1  6  0  0  0
 11 10  1  0  0  0  0
 12 17  1  6  0  0  0
 12 11  1  0  0  0  0
 15  9  1  0  0  0  0
 22  8  1  0  0  0  0
 22  1  1  0  0  0  0
M  END
>  <CHROM.1>
-158.94622921,65.58622709,-64.52458958,17.70866489,-9.50957594,26.10829958
1.98336270,-0.09073155,-2.70335846

>  <Name>
lig.pdb

>  <RI>
0

>  <Rbt.Current_Directory>
/home/itssahil/PROJECTS/Mol_Feturizer/New_Systems/rnas/5bxk

>  <Rbt.Executable>
rbdock ($Id: //depot/dev/client3/rdock/2013.1/src/exe/rbdock.cxx#4 $)

>  <Rbt.Library>
libRbt.so (2013.1, Build901 2013/11/27)

>  <Rbt.Parameter_File>
/export/apps/rDock/src/rDock_2013.1_src/data/scripts/dock_solv.prm

>  <Rbt.Receptor>
prm/pocket_docking_5.prm

>  <SCORE>
-9.28194

>  <SCORE.INTER>
-6.62245

>  <SCORE.INTER.CONST>
1

>  <SCORE.INTER.POLAR>
0

>  <SCORE.INTER.ROT>
3

>  <SCORE.INTER.SOLV>
19.9605

>  <SCORE.INTER.VDW>
-16.6685

>  <SCORE.INTER.norm>
-0.30102

>  <SCORE.INTRA>
-2.65949

>  <SCORE.INTRA.DIHEDRAL>
-4.91838

>  <SCORE.INTRA.DIHEDRAL.0>
7.18044

>  <SCORE.INTRA.POLAR>
0

>  <SCORE.INTRA.POLAR.0>
0

>  <SCORE.INTRA.REPUL>
0

>  <SCORE.INTRA.REPUL.0>
0

>  <SCORE.INTRA.SOLV>
-0.600609

>  <SCORE.INTRA.SOLV.lig_0>
-72.0615

>  <SCORE.INTRA.VDW>
0.100006

>  <SCORE.INTRA.VDW.0>
-1.54792

>  <SCORE.INTRA.norm>
-0.120886

>  <SCORE.RESTR>
0

>  <SCORE.RESTR.CAVITY>
0

>  <SCORE.RESTR.norm>
0

>  <SCORE.SYSTEM>
0

>  <SCORE.SYSTEM.CONST>
0

>  <SCORE.SYSTEM.DIHEDRAL>
0

>  <SCORE.SYSTEM.SOLV>
0

>  <SCORE.SYSTEM.norm>
0

>  <SCORE.heavy>
22

>  <SCORE.norm>
-0.421906

>  <RMSD>
1.241

$$$$
lig.pdb
 OpenBabel11021811523D
libRbt.so/2013.1/901 2013/11/27
 22 23  0  0  0  0  0  0  0  0999 V2000
   16.3301   -9.3692   25.5564 C   0  0  1  0  0  0  0  0  0  0  0  0
   18.2550   -8.1298   26.5600 C   0  0  1  0  0  0  0  0  0  0  0  0
   17.6360   -6.6199   26.7220 C   0  0  1  0  0  0  0  0  0  0  0  0
   18.8744   -5.5905   26.7647 C   0  0  2  0  0  0  0  0  0  0  0  0
   15.0276  -10.2144   25.9215 C   0  0  1  0  0  0  0  0  0  0  0  0
   15.4012  -11.7277   26.1699 C   0  0  2  0  0  0  0  0  0  0  0  0
   16.0197  -12.3255   24.8126 C   0  0  1  0  0  0  0  0  0  0  0  0
   17.3890  -11.5471   24.4330 C   0  0  1  0  0  0  0  0  0  0  0  0
   18.0659  -12.0679   23.1350 C   0  0  0  0  0  0  0  0  0  0  0  0
   19.7478   -5.9365   28.0683 C   0  0  1  0  0  0  0  0  0  0  0  0
   20.3256   -7.4296   27.8805 C   0  0  0  0  0  0  0  0  0  0  0  0
   19.1389   -8.4803   27.7809 C   0  0  2  0  0  0  0  0  0  0  0  0
   16.3754  -13.7415   24.9542 F   0  0  0  0  0  0  0  0  0  0  0  0
   14.4252   -9.5336   27.1597 N   0  0  0  0  0  0  0  0  0  0  0  0
   18.5706  -13.3888   23.2271 N   0  0  0  0  0  0  0  0  0  0  0  0
   20.9288   -5.0212   28.1624 N   0  0  0  0  0  0  0  0  0  0  0  0
   19.6485   -9.8355   27.5943 N   0  0  0  0  0  0  0  0  0  0  0  0
   17.2556   -9.1238   26.5392 O   0  0  0  0  0  0  0  0  0  0  0  0
   16.8008   -6.3283   25.5163 O   0  0  0  0  0  0  0  0  0  0  0  0
   18.3590   -4.3097   26.9037 O   0  0  0  0  0  0  0  0  0  0  0  0
   14.4069  -12.3023   26.4282 O   0  0  0  0  0  0  0  0  0  0  0  0
   17.0240  -10.0200   24.3168 O   0  0  0  0  0  0  0  0  0  0  0  0
  1  5  1  0  0  0  0
  1 18  1  1  0  0  0
  2 18  1  1  0  0  0
  2  3  1  0  0  0  0
  2 12  1  0  0  0  0
  3 19  1  6  0  0  0
  3  4  1  0  0  0  0
  4 20  1  1  0  0  0
  4 10  1  0  0  0  0
  5  6  1  0  0  0  0
  5 14  1  1  0  0  0
  6 21  1  6  0  0  0
  7 13  1  1  0  0  0
  7  6  1  0  0  0  0
  8  9  1  6  0  0  0
  8  7  1  0  0  0  0
 10 16  1  6  0  0  0
 11 10  1  0  0  0  0
 12 17  1  6  0  0  0
 12 11  1  0  0  0  0
 15  9  1  0  0  0  0
 22  8  1  0  0  0  0
 22  1  1  0  0  0  0
M  END
>  <CHROM.1>
-160.88752939,69.52841451,-66.77916037,17.50777113,-9.28277092,26.08914887
1.96536141,-0.09265193,-2.73158296

>  <Name>
lig.pdb

>  <RI>
0

>  <Rbt.Current_Directory>
/home/itssahil/PROJECTS/Mol_Feturizer/New_Systems/rnas/5bxk

>  <Rbt.Executable>
rbdock ($Id: //depot/dev/client3/rdock/2013.1/src/exe/rbdock.cxx#4 $)

>  <Rbt.Library>
libRbt.so (2013.1, Build901 2013/11/27)

>  <Rbt.Parameter_File>
/export/apps/rDock/src/rDock_2013.1_src/data/scripts/dock_solv.prm

>  <Rbt.Receptor>
prm/pocket_docking_2.prm

>  <SCORE>
-9.17952

>  <SCORE.INTER>
-6.52585

>  <SCORE.INTER.CONST>
1

>  <SCORE.INTER.POLAR>
0

>  <SCORE.INTER.ROT>
3

>  <SCORE.INTER.SOLV>
19.6991

>  <SCORE.INTER.VDW>
-16.5169

>  <SCORE.INTER.norm>
-0.296629

>  <SCORE.INTRA>
-2.65367

>  <SCORE.INTRA.DIHEDRAL>
-4.84782

>  <SCORE.INTRA.DIHEDRAL.0>
7.18044

>  <SCORE.INTRA.POLAR>
0

>  <SCORE.INTRA.POLAR.0>
0

>  <SCORE.INTRA.REPUL>
0

>  <SCORE.INTRA.REPUL.0>
0

>  <SCORE.INTRA.SOLV>
-0.550159

>  <SCORE.INTRA.SOLV.lig_0>
-72.0615

>  <SCORE.INTRA.VDW>
0.0453205

>  <SCORE.INTRA.VDW.0>
-1.54792

>  <SCORE.INTRA.norm>
-0.120621

>  <SCORE.RESTR>
0

>  <SCORE.RESTR.CAVITY>
0

>  <SCORE.RESTR.norm>
0

>  <SCORE.SYSTEM>
0

>  <SCORE.SYSTEM.CONST>
0

>  <SCORE.SYSTEM.DIHEDRAL>
0

>  <SCORE.SYSTEM.SOLV>
0

>  <SCORE.SYSTEM.norm>
0

>  <SCORE.heavy>
22

>  <SCORE.norm>
-0.417251

>  <RMSD>
1.253

$$$$
lig.pdb
 OpenBabel11021811523D
libRbt.so/2013.1/901 2013/11/27
 22 23  0  0  0  0  0  0  0  0999 V2000
   16.3446   -9.3983   25.5649 C   0  0  1  0  0  0  0  0  0  0  0  0
   18.2684   -8.1682   26.5819 C   0  0  1  0  0  0  0  0  0  0  0  0
   17.6504   -6.6574   26.7383 C   0  0  1  0  0  0  0  0  0  0  0  0
   18.8899   -5.6299   26.7924 C   0  0  2  0  0  0  0  0  0  0  0  0
   15.0406  -10.2452   25.9206 C   0  0  1  0  0  0  0  0  0  0  0  0
   15.4124  -11.7605   26.1591 C   0  0  2  0  0  0  0  0  0  0  0  0
   16.0341  -12.3490   24.7992 C   0  0  1  0  0  0  0  0  0  0  0  0
   17.4049  -11.5688   24.4287 C   0  0  1  0  0  0  0  0  0  0  0  0
   18.0848  -12.0808   23.1287 C   0  0  0  0  0  0  0  0  0  0  0  0
   19.7508   -5.9773   28.1039 C   0  0  1  0  0  0  0  0  0  0  0  0
   20.3279   -7.4713   27.9214 C   0  0  0  0  0  0  0  0  0  0  0  0
   19.1406   -8.5201   27.8109 C   0  0  2  0  0  0  0  0  0  0  0  0
   16.3884  -13.7662   24.9316 F   0  0  0  0  0  0  0  0  0  0  0  0
   14.4355   -9.5729   27.1621 N   0  0  0  0  0  0  0  0  0  0  0  0
   18.5438  -13.4198   23.1961 N   0  0  0  0  0  0  0  0  0  0  0  0
   20.9323   -5.0639   28.2090 N   0  0  0  0  0  0  0  0  0  0  0  0
   19.6498   -9.8762   27.6289 N   0  0  0  0  0  0  0  0  0  0  0  0
   17.2677   -9.1607   26.5518 O   0  0  0  0  0  0  0  0  0  0  0  0
   16.8267   -6.3644   25.5250 O   0  0  0  0  0  0  0  0  0  0  0  0
   18.3753   -4.3483   26.9267 O   0  0  0  0  0  0  0  0  0  0  0  0
   14.4171  -12.3362   26.4107 O   0  0  0  0  0  0  0  0  0  0  0  0
   17.0413  -10.0408   24.3225 O   0  0  0  0  0  0  0  0  0  0  0  0
  1  5  1  0  0  0  0
  1 18  1  1  0  0  0
  2 18  1  1  0  0  0
  2  3  1  0  0  0  0
  2 12  1  0  0  0  0
  3 19  1  6  0  0  0
  3  4  1  0  0  0  0
  4 20  1  1  0  0  0
  4 10  1  0  0  0  0
  5  6  1  0  0  0  0
  5 14  1  1  0  0  0
  6 21  1  6  0  0  0
  7 13  1  1  0  0  0
  7  6  1  0  0  0  0
  8  9  1  6  0  0  0
  8  7  1  0  0  0  0
 10 16  1  6  0  0  0
 11 10  1  0  0  0  0
 12 17  1  6  0  0  0
 12 11  1  0  0  0  0
 15  9  1  0  0  0  0
 22  8  1  0  0  0  0
 22  1  1  0  0  0  0
M  END
>  <CHROM.1>
-160.94328848,69.00571033,-64.53720612,17.51802088,-9.31593414,26.09792680
1.96517648,-0.09128915,-2.72481707

>  <Name>
lig.pdb

>  <RI>
0

>  <Rbt.Current_Directory>
/home/itssahil/PROJECTS/Mol_Feturizer/New_Systems/rnas/5bxk

>  <Rbt.Executable>
rbdock ($Id: //depot/dev/client3/rdock/2013.1/src/exe/rbdock.cxx#4 $)

>  <Rbt.Library>
libRbt.so (2013.1, Build901 2013/11/27)

>  <Rbt.Parameter_File>
/export/apps/rDock/src/rDock_2013.1_src/data/scripts/dock_solv.prm

>  <Rbt.Receptor>
prm/pocket_docking_2.prm

>  <SCORE>
-9.12104

>  <SCORE.INTER>
-6.42008

>  <SCORE.INTER.CONST>
1

>  <SCORE.INTER.POLAR>
0

>  <SCORE.INTER.ROT>
3

>  <SCORE.INTER.SOLV>
19.6633

>  <SCORE.INTER.VDW>
-16.4345

>  <SCORE.INTER.norm>
-0.291822

>  <SCORE.INTRA>
-2.70096

>  <SCORE.INTRA.DIHEDRAL>
-4.99222

>  <SCORE.INTRA.DIHEDRAL.0>
7.18044

>  <SCORE.INTRA.POLAR>
0

>  <SCORE.INTRA.POLAR.0>
0

>  <SCORE.INTRA.REPUL>
0

>  <SCORE.INTRA.REPUL.0>
0

>  <SCORE.INTRA.SOLV>
-0.539654

>  <SCORE.INTRA.SOLV.lig_0>
-72.0615

>  <SCORE.INTRA.VDW>
0.0649801

>  <SCORE.INTRA.VDW.0>
-1.54792

>  <SCORE.INTRA.norm>
-0.122771

>  <SCORE.RESTR>
0

>  <SCORE.RESTR.CAVITY>
0

>  <SCORE.RESTR.norm>
0

>  <SCORE.SYSTEM>
0

>  <SCORE.SYSTEM.CONST>
0

>  <SCORE.SYSTEM.DIHEDRAL>
0

>  <SCORE.SYSTEM.SOLV>
0

>  <SCORE.SYSTEM.norm>
0

>  <SCORE.heavy>
22

>  <SCORE.norm>
-0.414593

>  <RMSD>
1.255

$$$$
lig.pdb
 OpenBabel11021811523D
libRbt.so/2013.1/901 2013/11/27
 22 23  0  0  0  0  0  0  0  0999 V2000
   16.3460   -9.3981   25.5432 C   0  0  1  0  0  0  0  0  0  0  0  0
   18.2530   -8.1482   26.5675 C   0  0  1  0  0  0  0  0  0  0  0  0
   17.6206   -6.6431   26.7218 C   0  0  1  0  0  0  0  0  0  0  0  0
   18.8505   -5.6043   26.7797 C   0  0  2  0  0  0  0  0  0  0  0  0
   15.0428  -10.2473   25.8963 C   0  0  1  0  0  0  0  0  0  0  0  0
   15.4186  -11.7594   26.1484 C   0  0  2  0  0  0  0  0  0  0  0  0
   16.0516  -12.3554   24.7969 C   0  0  1  0  0  0  0  0  0  0  0  0
   17.4218  -11.5728   24.4299 C   0  0  1  0  0  0  0  0  0  0  0  0
   18.1123  -12.0917   23.1382 C   0  0  0  0  0  0  0  0  0  0  0  0
   19.7105   -5.9437   28.0940 C   0  0  1  0  0  0  0  0  0  0  0  0
   20.3018   -7.4323   27.9134 C   0  0  0  0  0  0  0  0  0  0  0  0
   19.1245   -8.4920   27.7993 C   0  0  2  0  0  0  0  0  0  0  0  0
   16.4103  -13.7703   24.9420 F   0  0  0  0  0  0  0  0  0  0  0  0
   14.4269   -9.5682   27.1289 N   0  0  0  0  0  0  0  0  0  0  0  0
   18.6182  -13.4120   23.2344 N   0  0  0  0  0  0  0  0  0  0  0  0
   20.8832   -5.0194   28.2026 N   0  0  0  0  0  0  0  0  0  0  0  0
   19.6467   -9.8433   27.6190 N   0  0  0  0  0  0  0  0  0  0  0  0
   17.2616   -9.1498   26.5344 O   0  0  0  0  0  0  0  0  0  0  0  0
   16.7982   -6.3578   25.5059 O   0  0  0  0  0  0  0  0  0  0  0  0
   18.3237   -4.3274   26.9123 O   0  0  0  0  0  0  0  0  0  0  0  0
   14.4238  -12.3370   26.3976 O   0  0  0  0  0  0  0  0  0  0  0  0
   17.0533  -10.0470   24.3101 O   0  0  0  0  0  0  0  0  0  0  0  0
  1  5  1  0  0  0  0
  1 18  1  1  0  0  0
  2 18  1  1  0  0  0
  2  3  1  0  0  0  0
  2 12  1  0  0  0  0
  3 19  1  6  0  0  0
  3  4  1  0  0  0  0
  4 20  1  1  0  0  0
  4 10  1  0  0  0  0
  5  6  1  0  0  0  0
  5 14  1  1  0  0  0
  6 21  1  6  0  0  0
  7 13  1  1  0  0  0
  7  6  1  0  0  0  0
  8  9  1  6  0  0  0
  8  7  1  0  0  0  0
 10 16  1  6  0  0  0
 11 10  1  0  0  0  0
 12 17  1  6  0  0  0
 12 11  1  0  0  0  0
 15  9  1  0  0  0  0
 22  8  1  0  0  0  0
 22  1  1  0  0  0  0
M  END
>  <CHROM.1>
-160.51543824,69.18449035,-66.67478183,17.51254224,-9.30471798,26.08911831
1.95590430,-0.08495795,-2.73195028

>  <Name>
lig.pdb

>  <RI>
0

>  <Rbt.Current_Directory>
/home/itssahil/PROJECTS/Mol_Feturizer/New_Systems/rnas/5bxk

>  <Rbt.Executable>
rbdock ($Id: //depot/dev/client3/rdock/2013.1/src/exe/rbdock.cxx#4 $)

>  <Rbt.Library>
libRbt.so (2013.1, Build901 2013/11/27)

>  <Rbt.Parameter_File>
/export/apps/rDock/src/rDock_2013.1_src/data/scripts/dock_solv.prm

>  <Rbt.Receptor>
prm/pocket_docking_2.prm

>  <SCORE>
-9.13709

>  <SCORE.INTER>
-6.49933

>  <SCORE.INTER.CONST>
1

>  <SCORE.INTER.POLAR>
0

>  <SCORE.INTER.ROT>
3

>  <SCORE.INTER.SOLV>
19.4295

>  <SCORE.INTER.VDW>
-16.4094

>  <SCORE.INTER.norm>
-0.295424

>  <SCORE.INTRA>
-2.63776

>  <SCORE.INTRA.DIHEDRAL>
-4.82608

>  <SCORE.INTRA.DIHEDRAL.0>
7.18044

>  <SCORE.INTRA.POLAR>
0

>  <SCORE.INTRA.POLAR.0>
0

>  <SCORE.INTRA.REPUL>
0

>  <SCORE.INTRA.REPUL.0>
0

>  <SCORE.INTRA.SOLV>
-0.547591

>  <SCORE.INTRA.SOLV.lig_0>
-72.0615

>  <SCORE.INTRA.VDW>
0.0490758

>  <SCORE.INTRA.VDW.0>
-1.54792

>  <SCORE.INTRA.norm>
-0.119898

>  <SCORE.RESTR>
0

>  <SCORE.RESTR.CAVITY>
0

>  <SCORE.RESTR.norm>
0

>  <SCORE.SYSTEM>
0

>  <SCORE.SYSTEM.CONST>
0

>  <SCORE.SYSTEM.DIHEDRAL>
0

>  <SCORE.SYSTEM.SOLV>
0

>  <SCORE.SYSTEM.norm>
0

>  <SCORE.heavy>
22

>  <SCORE.norm>
-0.415322

>  <RMSD>
1.269

$$$$
lig.pdb
 OpenBabel11021811523D
libRbt.so/2013.1/901 2013/11/27
 22 23  0  0  0  0  0  0  0  0999 V2000
   16.3710   -9.4231   25.5101 C   0  0  1  0  0  0  0  0  0  0  0  0
   18.2806   -8.1655   26.5201 C   0  0  1  0  0  0  0  0  0  0  0  0
   17.6542   -6.6609   26.7021 C   0  0  1  0  0  0  0  0  0  0  0  0
   18.8868   -5.6246   26.7436 C   0  0  2  0  0  0  0  0  0  0  0  0
   15.0630  -10.2601   25.8742 C   0  0  1  0  0  0  0  0  0  0  0  0
   15.4305  -11.7704   26.1489 C   0  0  2  0  0  0  0  0  0  0  0  0
   16.0616  -12.3895   24.8070 C   0  0  1  0  0  0  0  0  0  0  0  0
   17.4364  -11.6197   24.4300 C   0  0  1  0  0  0  0  0  0  0  0  0
   18.1254  -12.1611   23.1468 C   0  0  0  0  0  0  0  0  0  0  0  0
   19.7739   -5.9778   28.0361 C   0  0  1  0  0  0  0  0  0  0  0  0
   20.3588   -7.4656   27.8288 C   0  0  0  0  0  0  0  0  0  0  0  0
   19.1775   -8.5223   27.7298 C   0  0  2  0  0  0  0  0  0  0  0  0
   16.4126  -13.8040   24.9732 F   0  0  0  0  0  0  0  0  0  0  0  0
   14.4495   -9.5598   27.0961 N   0  0  0  0  0  0  0  0  0  0  0  0
   18.5895  -13.4960   23.2501 N   0  0  0  0  0  0  0  0  0  0  0  0
   20.9503   -5.0563   28.1285 N   0  0  0  0  0  0  0  0  0  0  0  0
   19.6934   -9.8726   27.5257 N   0  0  0  0  0  0  0  0  0  0  0  0
   17.2870   -9.1652   26.4986 O   0  0  0  0  0  0  0  0  0  0  0  0
   16.8066   -6.3629   25.5066 O   0  0  0  0  0  0  0  0  0  0  0  0
   18.3651   -4.3483   26.8995 O   0  0  0  0  0  0  0  0  0  0  0  0
   14.4324  -12.3389   26.4055 O   0  0  0  0  0  0  0  0  0  0  0  0
   17.0761  -10.0938   24.2874 O   0  0  0  0  0  0  0  0  0  0  0  0
  1  5  1  0  0  0  0
  1 18  1  1  0  0  0
  2 18  1  1  0  0  0
  2  3  1  0  0  0  0
  2 12  1  0  0  0  0
  3 19  1  6  0  0  0
  3  4  1  0  0  0  0
  4 20  1  1  0  0  0
  4 10  1  0  0  0  0
  5  6  1  0  0  0  0
  5 14  1  1  0  0  0
  6 21  1  6  0  0  0
  7 13  1  1  0  0  0
  7  6  1  0  0  0  0
  8  9  1  6  0  0  0
  8  7  1  0  0  0  0
 10 16  1  6  0  0  0
 11 10  1  0  0  0  0
 12 17  1  6  0  0  0
 12 11  1  0  0  0  0
 15  9  1  0  0  0  0
 22  8  1  0  0  0  0
 22  1  1  0  0  0  0
M  END
>  <CHROM.1>
-160.26859955,70.91704451,-64.92946067,17.53837425,-9.33267717,26.06472660
1.96003543,-0.07922322,-2.74230395

>  <Name>
lig.pdb

>  <RI>
0

>  <Rbt.Current_Directory>
/home/itssahil/PROJECTS/Mol_Feturizer/New_Systems/rnas/5bxk

>  <Rbt.Executable>
rbdock ($Id: //depot/dev/client3/rdock/2013.1/src/exe/rbdock.cxx#4 $)

>  <Rbt.Library>
libRbt.so (2013.1, Build901 2013/11/27)

>  <Rbt.Parameter_File>
/export/apps/rDock/src/rDock_2013.1_src/data/scripts/dock_solv.prm

>  <Rbt.Receptor>
prm/pocket_docking_2.prm

>  <SCORE>
-9.1642

>  <SCORE.INTER>
-6.63836

>  <SCORE.INTER.CONST>
1

>  <SCORE.INTER.POLAR>
0

>  <SCORE.INTER.ROT>
3

>  <SCORE.INTER.SOLV>
19.7052

>  <SCORE.INTER.VDW>
-16.594

>  <SCORE.INTER.norm>
-0.301744

>  <SCORE.INTRA>
-2.52636

>  <SCORE.INTRA.DIHEDRAL>
-4.69555

>  <SCORE.INTRA.DIHEDRAL.0>
7.18044

>  <SCORE.INTRA.POLAR>
0

>  <SCORE.INTRA.POLAR.0>
0

>  <SCORE.INTRA.REPUL>
0

>  <SCORE.INTRA.REPUL.0>
0

>  <SCORE.INTRA.SOLV>
-0.441919

>  <SCORE.INTRA.SOLV.lig_0>
-72.0615

>  <SCORE.INTRA.VDW>
0.0423725

>  <SCORE.INTRA.VDW.0>
-1.54792

>  <SCORE.INTRA.norm>
-0.114835

>  <SCORE.RESTR>
0.000524012

>  <SCORE.RESTR.CAVITY>
0.000524012

>  <SCORE.RESTR.norm>
2.38187e-05

>  <SCORE.SYSTEM>
0

>  <SCORE.SYSTEM.CONST>
0

>  <SCORE.SYSTEM.DIHEDRAL>
0

>  <SCORE.SYSTEM.SOLV>
0

>  <SCORE.SYSTEM.norm>
0

>  <SCORE.heavy>
22

>  <SCORE.norm>
-0.416554

>  <RMSD>
1.273

$$$$
lig.pdb
 OpenBabel11021811523D
libRbt.so/2013.1/901 2013/11/27
 22 23  0  0  0  0  0  0  0  0999 V2000
   16.5014   -9.5881   25.5872 C   0  0  1  0  0  0  0  0  0  0  0  0
   18.4405   -8.3865   26.6093 C   0  0  1  0  0  0  0  0  0  0  0  0
   17.8284   -6.8728   26.7617 C   0  0  1  0  0  0  0  0  0  0  0  0
   19.0723   -5.8514   26.8278 C   0  0  2  0  0  0  0  0  0  0  0  0
   15.1887  -10.4211   25.9437 C   0  0  1  0  0  0  0  0  0  0  0  0
   15.5416  -11.9438   26.1627 C   0  0  2  0  0  0  0  0  0  0  0  0
   16.1447  -12.5256   24.7915 C   0  0  1  0  0  0  0  0  0  0  0  0
   17.5232  -11.7601   24.4189 C   0  0  1  0  0  0  0  0  0  0  0  0
   18.1861  -12.2669   23.1081 C   0  0  0  0  0  0  0  0  0  0  0  0
   19.9199   -6.2043   28.1466 C   0  0  1  0  0  0  0  0  0  0  0  0
   20.4914   -7.7009   27.9676 C   0  0  0  0  0  0  0  0  0  0  0  0
   19.3000   -8.7438   27.8456 C   0  0  2  0  0  0  0  0  0  0  0  0
   16.4806  -13.9489   24.9056 F   0  0  0  0  0  0  0  0  0  0  0  0
   14.6024   -9.7544   27.1972 N   0  0  0  0  0  0  0  0  0  0  0  0
   18.6732  -13.5959   23.1740 N   0  0  0  0  0  0  0  0  0  0  0  0
   21.1049   -5.2966   28.2630 N   0  0  0  0  0  0  0  0  0  0  0  0
   19.8042  -10.1021   27.6668 N   0  0  0  0  0  0  0  0  0  0  0  0
   17.4352   -9.3740   26.5694 O   0  0  0  0  0  0  0  0  0  0  0  0
   17.0169   -6.5747   25.5415 O   0  0  0  0  0  0  0  0  0  0  0  0
   18.5627   -4.5674   26.9589 O   0  0  0  0  0  0  0  0  0  0  0  0
   14.5405  -12.5087   26.4157 O   0  0  0  0  0  0  0  0  0  0  0  0
   17.1797  -10.2262   24.3323 O   0  0  0  0  0  0  0  0  0  0  0  0
  1  5  1  0  0  0  0
  1 18  1  1  0  0  0
  2 18  1  1  0  0  0
  2  3  1  0  0  0  0
  2 12  1  0  0  0  0
  3 19  1  6  0  0  0
  3  4  1  0  0  0  0
  4 20  1  1  0  0  0
  4 10  1  0  0  0  0
  5  6  1  0  0  0  0
  5 14  1  1  0  0  0
  6 21  1  6  0  0  0
  7 13  1  1  0  0  0
  7  6  1  0  0  0  0
  8  9  1  6  0  0  0
  8  7  1  0  0  0  0
 10 16  1  6  0  0  0
 11 10  1  0  0  0  0
 12 17  1  6  0  0  0
 12 11  1  0  0  0  0
 15  9  1  0  0  0  0
 22  8  1  0  0  0  0
 22  1  1  0  0  0  0
M  END
>  <CHROM.1>
-160.18749661,67.47653919,-66.83584739,17.66788327,-9.51728915,26.11444515
1.97416533,-0.09364473,-2.71327732

>  <Name>
lig.pdb

>  <RI>
0

>  <Rbt.Current_Directory>
/home/itssahil/PROJECTS/Mol_Feturizer/New_Systems/rnas/5bxk

>  <Rbt.Executable>
rbdock ($Id: //depot/dev/client3/rdock/2013.1/src/exe/rbdock.cxx#4 $)

>  <Rbt.Library>
libRbt.so (2013.1, Build901 2013/11/27)

>  <Rbt.Parameter_File>
/export/apps/rDock/src/rDock_2013.1_src/data/scripts/dock_solv.prm

>  <Rbt.Receptor>
prm/pocket_docking_2.prm

>  <SCORE>
-9.21512

>  <SCORE.INTER>
-6.52671

>  <SCORE.INTER.CONST>
1

>  <SCORE.INTER.POLAR>
0

>  <SCORE.INTER.ROT>
3

>  <SCORE.INTER.SOLV>
19.8487

>  <SCORE.INTER.VDW>
-16.5674

>  <SCORE.INTER.norm>
-0.296669

>  <SCORE.INTRA>
-2.68841

>  <SCORE.INTRA.DIHEDRAL>
-4.90339

>  <SCORE.INTRA.DIHEDRAL.0>
7.18044

>  <SCORE.INTRA.POLAR>
0

>  <SCORE.INTRA.POLAR.0>
0

>  <SCORE.INTRA.REPUL>
0

>  <SCORE.INTRA.REPUL.0>
0

>  <SCORE.INTRA.SOLV>
-0.604882

>  <SCORE.INTRA.SOLV.lig_0>
-72.0615

>  <SCORE.INTRA.VDW>
0.0657309

>  <SCORE.INTRA.VDW.0>
-1.54792

>  <SCORE.INTRA.norm>
-0.1222

>  <SCORE.RESTR>
0

>  <SCORE.RESTR.CAVITY>
0

>  <SCORE.RESTR.norm>
0

>  <SCORE.SYSTEM>
0

>  <SCORE.SYSTEM.CONST>
0

>  <SCORE.SYSTEM.DIHEDRAL>
0

>  <SCORE.SYSTEM.SOLV>
0

>  <SCORE.SYSTEM.norm>
0

>  <SCORE.heavy>
22

>  <SCORE.norm>
-0.418869

>  <RMSD>
1.273

$$$$
lig.pdb
 OpenBabel11021811523D
libRbt.so/2013.1/901 2013/11/27
 22 23  0  0  0  0  0  0  0  0999 V2000
   16.3207   -9.3941   25.5596 C   0  0  1  0  0  0  0  0  0  0  0  0
   18.2390   -8.1429   26.5612 C   0  0  1  0  0  0  0  0  0  0  0  0
   17.6135   -6.6356   26.7221 C   0  0  1  0  0  0  0  0  0  0  0  0
   18.8474   -5.6007   26.7622 C   0  0  2  0  0  0  0  0  0  0  0  0
   15.0262  -10.2518   25.9238 C   0  0  1  0  0  0  0  0  0  0  0  0
   15.4137  -11.7619   26.1705 C   0  0  2  0  0  0  0  0  0  0  0  0
   16.0377  -12.3523   24.8124 C   0  0  1  0  0  0  0  0  0  0  0  0
   17.3996  -11.5608   24.4336 C   0  0  1  0  0  0  0  0  0  0  0  0
   18.0812  -12.0738   23.1349 C   0  0  0  0  0  0  0  0  0  0  0  0
   19.7238   -5.9413   28.0652 C   0  0  1  0  0  0  0  0  0  0  0  0
   20.3080   -7.4321   27.8785 C   0  0  0  0  0  0  0  0  0  0  0  0
   19.1258   -8.4880   27.7815 C   0  0  2  0  0  0  0  0  0  0  0  0
   16.4065  -13.7651   24.9523 F   0  0  0  0  0  0  0  0  0  0  0  0
   14.4176   -9.5781   27.1629 N   0  0  0  0  0  0  0  0  0  0  0  0
   18.5847  -13.3956   23.2205 N   0  0  0  0  0  0  0  0  0  0  0  0
   20.9008   -5.0206   28.1569 N   0  0  0  0  0  0  0  0  0  0  0  0
   19.6412   -9.8412   27.5959 N   0  0  0  0  0  0  0  0  0  0  0  0
   17.2440   -9.1414   26.5426 O   0  0  0  0  0  0  0  0  0  0  0  0
   16.7757   -6.3491   25.5170 O   0  0  0  0  0  0  0  0  0  0  0  0
   18.3265   -4.3220   26.9002 O   0  0  0  0  0  0  0  0  0  0  0  0
   14.4249  -12.3459   26.4282 O   0  0  0  0  0  0  0  0  0  0  0  0
   17.0205  -10.0371   24.3191 O   0  0  0  0  0  0  0  0  0  0  0  0
  1  5  1  0  0  0  0
  1 18  1  1  0  0  0
  2 18  1  1  0  0  0
  2  3  1  0  0  0  0
  2 12  1  0  0  0  0
  3 19  1  6  0  0  0
  3  4  1  0  0  0  0
  4 20  1  1  0  0  0
  4 10  1  0  0  0  0
  5  6  1  0  0  0  0
  5 14  1  1  0  0  0
  6 21  1  6  0  0  0
  7 13  1  1  0  0  0
  7  6  1  0  0  0  0
  8  9  1  6  0  0  0
  8  7  1  0  0  0  0
 10 16  1  6  0  0  0
 11 10  1  0  0  0  0
 12 17  1  6  0  0  0
 12 11  1  0  0  0  0
 15  9  1  0  0  0  0
 22  8  1  0  0  0  0
 22  1  1  0  0  0  0
M  END
>  <CHROM.1>
-161.27807253,69.71115657,-66.10128604,17.50244480,-9.30061732,26.08887393
1.95988148,-0.09722635,-2.73165790

>  <Name>
lig.pdb

>  <RI>
0

>  <Rbt.Current_Directory>
/home/itssahil/PROJECTS/Mol_Feturizer/New_Systems/rnas/5bxk

>  <Rbt.Executable>
rbdock ($Id: //depot/dev/client3/rdock/2013.1/src/exe/rbdock.cxx#4 $)

>  <Rbt.Library>
libRbt.so (2013.1, Build901 2013/11/27)

>  <Rbt.Parameter_File>
/export/apps/rDock/src/rDock_2013.1_src/data/scripts/dock_solv.prm

>  <Rbt.Receptor>
prm/pocket_docking_2.prm

>  <SCORE>
-9.18655

>  <SCORE.INTER>
-6.50071

>  <SCORE.INTER.CONST>
1

>  <SCORE.INTER.POLAR>
0

>  <SCORE.INTER.ROT>
3

>  <SCORE.INTER.SOLV>
19.676

>  <SCORE.INTER.VDW>
-16.4925

>  <SCORE.INTER.norm>
-0.295487

>  <SCORE.INTRA>
-2.68584

>  <SCORE.INTRA.DIHEDRAL>
-4.92131

>  <SCORE.INTRA.DIHEDRAL.0>
7.18044

>  <SCORE.INTRA.POLAR>
0

>  <SCORE.INTRA.POLAR.0>
0

>  <SCORE.INTRA.REPUL>
0

>  <SCORE.INTRA.REPUL.0>
0

>  <SCORE.INTRA.SOLV>
-0.546127

>  <SCORE.INTRA.SOLV.lig_0>
-72.0615

>  <SCORE.INTRA.VDW>
0.0478788

>  <SCORE.INTRA.VDW.0>
-1.54792

>  <SCORE.INTRA.norm>
-0.122084

>  <SCORE.RESTR>
0

>  <SCORE.RESTR.CAVITY>
0

>  <SCORE.RESTR.norm>
0

>  <SCORE.SYSTEM>
0

>  <SCORE.SYSTEM.CONST>
0

>  <SCORE.SYSTEM.DIHEDRAL>
0

>  <SCORE.SYSTEM.SOLV>
0

>  <SCORE.SYSTEM.norm>
0

>  <SCORE.heavy>
22

>  <SCORE.norm>
-0.41757

>  <RMSD>
1.276

$$$$
lig.pdb
 OpenBabel11021811523D
libRbt.so/2013.1/901 2013/11/27
 22 23  0  0  0  0  0  0  0  0999 V2000
   16.3870   -9.4916   25.6396 C   0  0  1  0  0  0  0  0  0  0  0  0
   18.3411   -8.2791   26.6194 C   0  0  1  0  0  0  0  0  0  0  0  0
   17.7286   -6.7635   26.7494 C   0  0  1  0  0  0  0  0  0  0  0  0
   18.9721   -5.7400   26.7881 C   0  0  2  0  0  0  0  0  0  0  0  0
   15.1065  -10.3673   26.0103 C   0  0  1  0  0  0  0  0  0  0  0  0
   15.5065  -11.8830   26.1943 C   0  0  2  0  0  0  0  0  0  0  0  0
   16.0943  -12.4239   24.8000 C   0  0  1  0  0  0  0  0  0  0  0  0
   17.4420  -11.6136   24.4105 C   0  0  1  0  0  0  0  0  0  0  0  0
   18.0889  -12.0789   23.0765 C   0  0  0  0  0  0  0  0  0  0  0  0
   19.8297   -6.0687   28.1067 C   0  0  1  0  0  0  0  0  0  0  0  0
   20.4013   -7.5677   27.9501 C   0  0  0  0  0  0  0  0  0  0  0  0
   19.2100   -8.6136   27.8554 C   0  0  2  0  0  0  0  0  0  0  0  0
   16.4722  -13.8389   24.8813 F   0  0  0  0  0  0  0  0  0  0  0  0
   14.5304   -9.7390   27.2882 N   0  0  0  0  0  0  0  0  0  0  0  0
   18.5774  -13.4090   23.0951 N   0  0  0  0  0  0  0  0  0  0  0  0
   21.0146   -5.1581   28.1982 N   0  0  0  0  0  0  0  0  0  0  0  0
   19.7142   -9.9745   27.6971 N   0  0  0  0  0  0  0  0  0  0  0  0
   17.3366   -9.2681   26.6044 O   0  0  0  0  0  0  0  0  0  0  0  0
   16.9080   -6.4878   25.5301 O   0  0  0  0  0  0  0  0  0  0  0  0
   18.4622   -4.4543   26.9001 O   0  0  0  0  0  0  0  0  0  0  0  0
   14.5275  -12.4801   26.4594 O   0  0  0  0  0  0  0  0  0  0  0  0
   17.0542  -10.0886   24.3588 O   0  0  0  0  0  0  0  0  0  0  0  0
  1  5  1  0  0  0  0
  1 18  1  1  0  0  0
  2 18  1  1  0  0  0
  2  3  1  0  0  0  0
  2 12  1  0  0  0  0
  3 19  1  6  0  0  0
  3  4  1  0  0  0  0
  4 20  1  1  0  0  0
  4 10  1  0  0  0  0
  5  6  1  0  0  0  0
  5 14  1  1  0  0  0
  6 21  1  6  0  0  0
  7 13  1  1  0  0  0
  7  6  1  0  0  0  0
  8  9  1  6  0  0  0
  8  7  1  0  0  0  0
 10 16  1  6  0  0  0
 11 10  1  0  0  0  0
 12 17  1  6  0  0  0
 12 11  1  0  0  0  0
 15  9  1  0  0  0  0
 22  8  1  0  0  0  0
 22  1  1  0  0  0  0
M  END
>  <CHROM.1>
-162.35867287,66.73697925,-64.98728359,17.58556581,-9.40741761,26.11482623
1.97385575,-0.13735946,-2.70124317

>  <Name>
lig.pdb

>  <RI>
0

>  <Rbt.Current_Directory>
/home/itssahil/PROJECTS/Mol_Feturizer/New_Systems/rnas/5bxk

>  <Rbt.Executable>
rbdock ($Id: //depot/dev/client3/rdock/2013.1/src/exe/rbdock.cxx#4 $)

>  <Rbt.Library>
libRbt.so (2013.1, Build901 2013/11/27)

>  <Rbt.Parameter_File>
/export/apps/rDock/src/rDock_2013.1_src/data/scripts/dock_solv.prm

>  <Rbt.Receptor>
prm/pocket_docking_2.prm

>  <SCORE>
-9.17858

>  <SCORE.INTER>
-6.24561

>  <SCORE.INTER.CONST>
1

>  <SCORE.INTER.POLAR>
0

>  <SCORE.INTER.ROT>
3

>  <SCORE.INTER.SOLV>
20.2621

>  <SCORE.INTER.VDW>
-16.5178

>  <SCORE.INTER.norm>
-0.283891

>  <SCORE.INTRA>
-2.93297

>  <SCORE.INTRA.DIHEDRAL>
-5.35863

>  <SCORE.INTRA.DIHEDRAL.0>
7.18044

>  <SCORE.INTRA.POLAR>
0

>  <SCORE.INTRA.POLAR.0>
0

>  <SCORE.INTRA.REPUL>
0

>  <SCORE.INTRA.REPUL.0>
0

>  <SCORE.INTRA.SOLV>
-0.644801

>  <SCORE.INTRA.SOLV.lig_0>
-72.0615

>  <SCORE.INTRA.VDW>
0.0687434

>  <SCORE.INTRA.VDW.0>
-1.54792

>  <SCORE.INTRA.norm>
-0.133317

>  <SCORE.RESTR>
0

>  <SCORE.RESTR.CAVITY>
0

>  <SCORE.RESTR.norm>
0

>  <SCORE.SYSTEM>
0

>  <SCORE.SYSTEM.CONST>
0

>  <SCORE.SYSTEM.DIHEDRAL>
0

>  <SCORE.SYSTEM.SOLV>
0

>  <SCORE.SYSTEM.norm>
0

>  <SCORE.heavy>
22

>  <SCORE.norm>
-0.417208

>  <RMSD>
1.278

$$$$
lig.pdb
 OpenBabel11021811523D
libRbt.so/2013.1/901 2013/11/27
 22 23  0  0  0  0  0  0  0  0999 V2000
   16.3179   -9.3921   25.5504 C   0  0  1  0  0  0  0  0  0  0  0  0
   18.2337   -8.1507   26.5688 C   0  0  1  0  0  0  0  0  0  0  0  0
   17.6042   -6.6439   26.7188 C   0  0  1  0  0  0  0  0  0  0  0  0
   18.8361   -5.6075   26.7755 C   0  0  2  0  0  0  0  0  0  0  0  0
   15.0202  -10.2489   25.9052 C   0  0  1  0  0  0  0  0  0  0  0  0
   15.4028  -11.7621   26.1399 C   0  0  2  0  0  0  0  0  0  0  0  0
   16.0273  -12.3431   24.7779 C   0  0  1  0  0  0  0  0  0  0  0  0
   17.3922  -11.5525   24.4081 C   0  0  1  0  0  0  0  0  0  0  0  0
   18.0745  -12.0567   23.1063 C   0  0  0  0  0  0  0  0  0  0  0  0
   19.6939   -5.9454   28.0915 C   0  0  1  0  0  0  0  0  0  0  0  0
   20.2825   -7.4357   27.9151 C   0  0  0  0  0  0  0  0  0  0  0  0
   19.1032   -8.4933   27.8023 C   0  0  2  0  0  0  0  0  0  0  0  0
   16.3916  -13.7581   24.9067 F   0  0  0  0  0  0  0  0  0  0  0  0
   14.4115   -9.5837   27.1489 N   0  0  0  0  0  0  0  0  0  0  0  0
   18.5420  -13.3930   23.1698 N   0  0  0  0  0  0  0  0  0  0  0  0
   20.8684   -5.0232   28.1992 N   0  0  0  0  0  0  0  0  0  0  0  0
   19.6228   -9.8461   27.6259 N   0  0  0  0  0  0  0  0  0  0  0  0
   17.2403   -9.1504   26.5370 O   0  0  0  0  0  0  0  0  0  0  0  0
   16.7836   -6.3600   25.5012 O   0  0  0  0  0  0  0  0  0  0  0  0
   18.3117   -4.3292   26.9044 O   0  0  0  0  0  0  0  0  0  0  0  0
   14.4117  -12.3453   26.3910 O   0  0  0  0  0  0  0  0  0  0  0  0
   17.0179  -10.0268   24.3058 O   0  0  0  0  0  0  0  0  0  0  0  0
  1  5  1  0  0  0  0
  1 18  1  1  0  0  0
  2 18  1  1  0  0  0
  2  3  1  0  0  0  0
  2 12  1  0  0  0  0
  3 19  1  6  0  0  0
  3  4  1  0  0  0  0
  4 20  1  1  0  0  0
  4 10  1  0  0  0  0
  5  6  1  0  0  0  0
  5 14  1  1  0  0  0
  6 21  1  6  0  0  0
  7 13  1  1  0  0  0
  7  6  1  0  0  0  0
  8  9  1  6  0  0  0
  8  7  1  0  0  0  0
 10 16  1  6  0  0  0
 11 10  1  0  0  0  0
 12 17  1  6  0  0  0
 12 11  1  0  0  0  0
 15  9  1  0  0  0  0
 22  8  1  0  0  0  0
 22  1  1  0  0  0  0
M  END
>  <CHROM.1>
-160.91371106,68.58339240,-64.49096853,17.48949942,-9.30130305,26.08111650
1.95865689,-0.09575966,-2.72352370

>  <Name>
lig.pdb

>  <RI>
0

>  <Rbt.Current_Directory>
/home/itssahil/PROJECTS/Mol_Feturizer/New_Systems/rnas/5bxk

>  <Rbt.Executable>
rbdock ($Id: //depot/dev/client3/rdock/2013.1/src/exe/rbdock.cxx#4 $)

>  <Rbt.Library>
libRbt.so (2013.1, Build901 2013/11/27)

>  <Rbt.Parameter_File>
/export/apps/rDock/src/rDock_2013.1_src/data/scripts/dock_solv.prm

>  <Rbt.Receptor>
prm/pocket_docking_2.prm

>  <SCORE>
-9.13507

>  <SCORE.INTER>
-6.41661

>  <SCORE.INTER.CONST>
1

>  <SCORE.INTER.POLAR>
0

>  <SCORE.INTER.ROT>
3

>  <SCORE.INTER.SOLV>
19.641

>  <SCORE.INTER.VDW>
-16.4247

>  <SCORE.INTER.norm>
-0.291664

>  <SCORE.INTRA>
-2.71846

>  <SCORE.INTRA.DIHEDRAL>
-5.02457

>  <SCORE.INTRA.DIHEDRAL.0>
7.18044

>  <SCORE.INTRA.POLAR>
0

>  <SCORE.INTRA.POLAR.0>
0

>  <SCORE.INTRA.REPUL>
0

>  <SCORE.INTRA.REPUL.0>
0

>  <SCORE.INTRA.SOLV>
-0.551631

>  <SCORE.INTRA.SOLV.lig_0>
-72.0615

>  <SCORE.INTRA.VDW>
0.0696385

>  <SCORE.INTRA.VDW.0>
-1.54792

>  <SCORE.INTRA.norm>
-0.123567

>  <SCORE.RESTR>
0

>  <SCORE.RESTR.CAVITY>
0

>  <SCORE.RESTR.norm>
0

>  <SCORE.SYSTEM>
0

>  <SCORE.SYSTEM.CONST>
0

>  <SCORE.SYSTEM.DIHEDRAL>
0

>  <SCORE.SYSTEM.SOLV>
0

>  <SCORE.SYSTEM.norm>
0

>  <SCORE.heavy>
22

>  <SCORE.norm>
-0.415231

>  <RMSD>
1.281

$$$$
lig.pdb
 OpenBabel11021811523D
libRbt.so/2013.1/901 2013/11/27
 22 23  0  0  0  0  0  0  0  0999 V2000
   16.3167   -9.3807   25.5283 C   0  0  1  0  0  0  0  0  0  0  0  0
   18.2314   -8.1313   26.5390 C   0  0  1  0  0  0  0  0  0  0  0  0
   17.6029   -6.6268   26.7137 C   0  0  1  0  0  0  0  0  0  0  0  0
   18.8345   -5.5895   26.7605 C   0  0  2  0  0  0  0  0  0  0  0  0
   15.0232  -10.2424   25.8865 C   0  0  1  0  0  0  0  0  0  0  0  0
   15.4130  -11.7532   26.1254 C   0  0  2  0  0  0  0  0  0  0  0  0
   16.0393  -12.3352   24.7648 C   0  0  1  0  0  0  0  0  0  0  0  0
   17.4003  -11.5395   24.3917 C   0  0  1  0  0  0  0  0  0  0  0  0
   18.0841  -12.0443   23.0909 C   0  0  0  0  0  0  0  0  0  0  0  0
   19.7139   -5.9392   28.0592 C   0  0  1  0  0  0  0  0  0  0  0  0
   20.3010   -7.4270   27.8590 C   0  0  0  0  0  0  0  0  0  0  0  0
   19.1210   -8.4847   27.7550 C   0  0  2  0  0  0  0  0  0  0  0  0
   16.4103  -13.7481   24.8974 F   0  0  0  0  0  0  0  0  0  0  0  0
   14.4123   -9.5764   27.1286 N   0  0  0  0  0  0  0  0  0  0  0  0
   18.6712  -13.3296   23.1987 N   0  0  0  0  0  0  0  0  0  0  0  0
   20.8890   -5.0167   28.1568 N   0  0  0  0  0  0  0  0  0  0  0  0
   19.6391   -9.8352   27.5571 N   0  0  0  0  0  0  0  0  0  0  0  0
   17.2386   -9.1318   26.5136 O   0  0  0  0  0  0  0  0  0  0  0  0
   16.7625   -6.3320   25.5124 O   0  0  0  0  0  0  0  0  0  0  0  0
   18.3110   -4.3132   26.9102 O   0  0  0  0  0  0  0  0  0  0  0  0
   14.4248  -12.3402   26.3789 O   0  0  0  0  0  0  0  0  0  0  0  0
   17.0189  -10.0158   24.2851 O   0  0  0  0  0  0  0  0  0  0  0  0
  1  5  1  0  0  0  0
  1 18  1  1  0  0  0
  2 18  1  1  0  0  0
  2  3  1  0  0  0  0
  2 12  1  0  0  0  0
  3 19  1  6  0  0  0
  3  4  1  0  0  0  0
  4 20  1  1  0  0  0
  4 10  1  0  0  0  0
  5  6  1  0  0  0  0
  5 14  1  1  0  0  0
  6 21  1  6  0  0  0
  7 13  1  1  0  0  0
  7  6  1  0  0  0  0
  8  9  1  6  0  0  0
  8  7  1  0  0  0  0
 10 16  1  6  0  0  0
 11 10  1  0  0  0  0
 12 17  1  6  0  0  0
 12 11  1  0  0  0  0
 15  9  1  0  0  0  0
 22  8  1  0  0  0  0
 22  1  1  0  0  0  0
M  END
>  <CHROM.1>
-161.23558341,69.91586714,-70.26163859,17.50156059,-9.28691725,26.06185834
1.95761838,-0.09641963,-2.72678927

>  <Name>
lig.pdb

>  <RI>
0

>  <Rbt.Current_Directory>
/home/itssahil/PROJECTS/Mol_Feturizer/New_Systems/rnas/5bxk

>  <Rbt.Executable>
rbdock ($Id: //depot/dev/client3/rdock/2013.1/src/exe/rbdock.cxx#4 $)

>  <Rbt.Library>
libRbt.so (2013.1, Build901 2013/11/27)

>  <Rbt.Parameter_File>
/export/apps/rDock/src/rDock_2013.1_src/data/scripts/dock_solv.prm

>  <Rbt.Receptor>
prm/pocket_docking_2.prm

>  <SCORE>
-9.12331

>  <SCORE.INTER>
-6.51947

>  <SCORE.INTER.CONST>
1

>  <SCORE.INTER.POLAR>
0

>  <SCORE.INTER.ROT>
3

>  <SCORE.INTER.SOLV>
19.8118

>  <SCORE.INTER.VDW>
-16.5503

>  <SCORE.INTER.norm>
-0.29634

>  <SCORE.INTRA>
-2.60384

>  <SCORE.INTRA.DIHEDRAL>
-4.65839

>  <SCORE.INTRA.DIHEDRAL.0>
7.18044

>  <SCORE.INTRA.POLAR>
0

>  <SCORE.INTRA.POLAR.0>
0

>  <SCORE.INTRA.REPUL>
0

>  <SCORE.INTRA.REPUL.0>
0

>  <SCORE.INTRA.SOLV>
-0.59837

>  <SCORE.INTRA.SOLV.lig_0>
-72.0615

>  <SCORE.INTRA.VDW>
0.0245379

>  <SCORE.INTRA.VDW.0>
-1.54792

>  <SCORE.INTRA.norm>
-0.118356

>  <SCORE.RESTR>
0

>  <SCORE.RESTR.CAVITY>
0

>  <SCORE.RESTR.norm>
0

>  <SCORE.SYSTEM>
0

>  <SCORE.SYSTEM.CONST>
0

>  <SCORE.SYSTEM.DIHEDRAL>
0

>  <SCORE.SYSTEM.SOLV>
0

>  <SCORE.SYSTEM.norm>
0

>  <SCORE.heavy>
22

>  <SCORE.norm>
-0.414696

>  <RMSD>
1.283

$$$$
lig.pdb
 OpenBabel11021811523D
libRbt.so/2013.1/901 2013/11/27
 22 23  0  0  0  0  0  0  0  0999 V2000
   16.3081   -9.3971   25.5507 C   0  0  1  0  0  0  0  0  0  0  0  0
   18.2263   -8.1469   26.5537 C   0  0  1  0  0  0  0  0  0  0  0  0
   17.6004   -6.6402   26.7184 C   0  0  1  0  0  0  0  0  0  0  0  0
   18.8339   -5.6048   26.7598 C   0  0  2  0  0  0  0  0  0  0  0  0
   15.0144  -10.2565   25.9137 C   0  0  1  0  0  0  0  0  0  0  0  0
   15.4032  -11.7668   26.1570 C   0  0  2  0  0  0  0  0  0  0  0  0
   16.0269  -12.3539   24.7974 C   0  0  1  0  0  0  0  0  0  0  0  0
   17.3881  -11.5606   24.4196 C   0  0  1  0  0  0  0  0  0  0  0  0
   18.0694  -12.0704   23.1195 C   0  0  0  0  0  0  0  0  0  0  0  0
   19.7115   -5.9480   28.0613 C   0  0  1  0  0  0  0  0  0  0  0  0
   20.2961   -7.4381   27.8709 C   0  0  0  0  0  0  0  0  0  0  0  0
   19.1143   -8.4943   27.7726 C   0  0  2  0  0  0  0  0  0  0  0  0
   16.3968  -13.7667   24.9343 F   0  0  0  0  0  0  0  0  0  0  0  0
   14.4059   -9.5858   27.1546 N   0  0  0  0  0  0  0  0  0  0  0  0
   18.6030  -13.3799   23.2126 N   0  0  0  0  0  0  0  0  0  0  0  0
   20.8882   -5.0270   28.1542 N   0  0  0  0  0  0  0  0  0  0  0  0
   19.6301   -9.8469   27.5836 N   0  0  0  0  0  0  0  0  0  0  0  0
   17.2317   -9.1457   26.5337 O   0  0  0  0  0  0  0  0  0  0  0  0
   16.7615   -6.3514   25.5146 O   0  0  0  0  0  0  0  0  0  0  0  0
   18.3126   -4.3267   26.9011 O   0  0  0  0  0  0  0  0  0  0  0  0
   14.4149  -12.3521   26.4140 O   0  0  0  0  0  0  0  0  0  0  0  0
   17.0078  -10.0369   24.3086 O   0  0  0  0  0  0  0  0  0  0  0  0
  1  5  1  0  0  0  0
  1 18  1  1  0  0  0
  2 18  1  1  0  0  0
  2  3  1  0  0  0  0
  2 12  1  0  0  0  0
  3 19  1  6  0  0  0
  3  4  1  0  0  0  0
  4 20  1  1  0  0  0
  4 10  1  0  0  0  0
  5  6  1  0  0  0  0
  5 14  1  1  0  0  0
  6 21  1  6  0  0  0
  7 13  1  1  0  0  0
  7  6  1  0  0  0  0
  8  9  1  6  0  0  0
  8  7  1  0  0  0  0
 10 16  1  6  0  0  0
 11 10  1  0  0  0  0
 12 17  1  6  0  0  0
 12 11  1  0  0  0  0
 15  9  1  0  0  0  0
 22  8  1  0  0  0  0
 22  1  1  0  0  0  0
M  END
>  <CHROM.1>
-161.30579807,69.74556854,-67.57344028,17.49183143,-9.30354560,26.07992023
1.95953537,-0.09791582,-2.72993177

>  <Name>
lig.pdb

>  <RI>
0

>  <Rbt.Current_Directory>
/home/itssahil/PROJECTS/Mol_Feturizer/New_Systems/rnas/5bxk

>  <Rbt.Executable>
rbdock ($Id: //depot/dev/client3/rdock/2013.1/src/exe/rbdock.cxx#4 $)

>  <Rbt.Library>
libRbt.so (2013.1, Build901 2013/11/27)

>  <Rbt.Parameter_File>
/export/apps/rDock/src/rDock_2013.1_src/data/scripts/dock_solv.prm

>  <Rbt.Receptor>
prm/pocket_docking_2.prm

>  <SCORE>
-9.15526

>  <SCORE.INTER>
-6.4854

>  <SCORE.INTER.CONST>
1

>  <SCORE.INTER.POLAR>
0

>  <SCORE.INTER.ROT>
3

>  <SCORE.INTER.SOLV>
19.7235

>  <SCORE.INTER.VDW>
-16.4981

>  <SCORE.INTER.norm>
-0.294791

>  <SCORE.INTRA>
-2.66986

>  <SCORE.INTRA.DIHEDRAL>
-4.85135

>  <SCORE.INTRA.DIHEDRAL.0>
7.18044

>  <SCORE.INTRA.POLAR>
0

>  <SCORE.INTRA.POLAR.0>
0

>  <SCORE.INTRA.REPUL>
0

>  <SCORE.INTRA.REPUL.0>
0

>  <SCORE.INTRA.SOLV>
-0.566517

>  <SCORE.INTRA.SOLV.lig_0>
-72.0615

>  <SCORE.INTRA.VDW>
0.0390766

>  <SCORE.INTRA.VDW.0>
-1.54792

>  <SCORE.INTRA.norm>
-0.121357

>  <SCORE.RESTR>
0

>  <SCORE.RESTR.CAVITY>
0

>  <SCORE.RESTR.norm>
0

>  <SCORE.SYSTEM>
0

>  <SCORE.SYSTEM.CONST>
0

>  <SCORE.SYSTEM.DIHEDRAL>
0

>  <SCORE.SYSTEM.SOLV>
0

>  <SCORE.SYSTEM.norm>
0

>  <SCORE.heavy>
22

>  <SCORE.norm>
-0.416148

>  <RMSD>
1.284

$$$$
lig.pdb
 OpenBabel11021811523D
libRbt.so/2013.1/901 2013/11/27
 22 23  0  0  0  0  0  0  0  0999 V2000
   16.3085   -9.4052   25.5389 C   0  0  1  0  0  0  0  0  0  0  0  0
   18.2287   -8.1558   26.5390 C   0  0  1  0  0  0  0  0  0  0  0  0
   17.6023   -6.6507   26.7167 C   0  0  1  0  0  0  0  0  0  0  0  0
   18.8350   -5.6143   26.7560 C   0  0  2  0  0  0  0  0  0  0  0  0
   15.0097  -10.2547   25.9073 C   0  0  1  0  0  0  0  0  0  0  0  0
   15.3891  -11.7663   26.1569 C   0  0  2  0  0  0  0  0  0  0  0  0
   16.0073  -12.3636   24.7992 C   0  0  1  0  0  0  0  0  0  0  0  0
   17.3731  -11.5807   24.4162 C   0  0  1  0  0  0  0  0  0  0  0  0
   18.0495  -12.1007   23.1175 C   0  0  0  0  0  0  0  0  0  0  0  0
   19.7215   -5.9642   28.0498 C   0  0  1  0  0  0  0  0  0  0  0  0
   20.3063   -7.4526   27.8468 C   0  0  0  0  0  0  0  0  0  0  0  0
   19.1250   -8.5094   27.7500 C   0  0  2  0  0  0  0  0  0  0  0  0
   16.3683  -13.7781   24.9419 F   0  0  0  0  0  0  0  0  0  0  0  0
   14.4072   -9.5746   27.1459 N   0  0  0  0  0  0  0  0  0  0  0  0
   18.5363  -13.4289   23.2020 N   0  0  0  0  0  0  0  0  0  0  0  0
   20.8979   -5.0426   28.1403 N   0  0  0  0  0  0  0  0  0  0  0  0
   19.6408   -9.8604   27.5497 N   0  0  0  0  0  0  0  0  0  0  0  0
   17.2349   -9.1554   26.5197 O   0  0  0  0  0  0  0  0  0  0  0  0
   16.7553   -6.3557   25.5201 O   0  0  0  0  0  0  0  0  0  0  0  0
   18.3134   -4.3375   26.9082 O   0  0  0  0  0  0  0  0  0  0  0  0
   14.3974  -12.3441   26.4177 O   0  0  0  0  0  0  0  0  0  0  0  0
   17.0025  -10.0551   24.2988 O   0  0  0  0  0  0  0  0  0  0  0  0
  1  5  1  0  0  0  0
  1 18  1  1  0  0  0
  2 18  1  1  0  0  0
  2  3  1  0  0  0  0
  2 12  1  0  0  0  0
  3 19  1  6  0  0  0
  3  4  1  0  0  0  0
  4 20  1  1  0  0  0
  4 10  1  0  0  0  0
  5  6  1  0  0  0  0
  5 14  1  1  0  0  0
  6 21  1  6  0  0  0
  7 13  1  1  0  0  0
  7  6  1  0  0  0  0
  8  9  1  6  0  0  0
  8  7  1  0  0  0  0
 10 16  1  6  0  0  0
 11 10  1  0  0  0  0
 12 17  1  6  0  0  0
 12 11  1  0  0  0  0
 15  9  1  0  0  0  0
 22  8  1  0  0  0  0
 22  1  1  0  0  0  0
M  END
>  <CHROM.1>
-160.71532711,70.02108385,-65.62669114,17.48525960,-9.31499609,26.07272916
1.96200624,-0.09456677,-2.73159202

>  <Name>
lig.pdb

>  <RI>
0

>  <Rbt.Current_Directory>
/home/itssahil/PROJECTS/Mol_Feturizer/New_Systems/rnas/5bxk

>  <Rbt.Executable>
rbdock ($Id: //depot/dev/client3/rdock/2013.1/src/exe/rbdock.cxx#4 $)

>  <Rbt.Library>
libRbt.so (2013.1, Build901 2013/11/27)

>  <Rbt.Parameter_File>
/export/apps/rDock/src/rDock_2013.1_src/data/scripts/dock_solv.prm

>  <Rbt.Receptor>
prm/pocket_docking_2.prm

>  <SCORE>
-9.17963

>  <SCORE.INTER>
-6.56023

>  <SCORE.INTER.CONST>
1

>  <SCORE.INTER.POLAR>
0

>  <SCORE.INTER.ROT>
3

>  <SCORE.INTER.SOLV>
19.7901

>  <SCORE.INTER.VDW>
-16.5702

>  <SCORE.INTER.norm>
-0.298192

>  <SCORE.INTRA>
-2.6194

>  <SCORE.INTRA.DIHEDRAL>
-4.82654

>  <SCORE.INTRA.DIHEDRAL.0>
7.18044

>  <SCORE.INTRA.POLAR>
0

>  <SCORE.INTRA.POLAR.0>
0

>  <SCORE.INTRA.REPUL>
0

>  <SCORE.INTRA.REPUL.0>
0

>  <SCORE.INTRA.SOLV>
-0.506632

>  <SCORE.INTRA.SOLV.lig_0>
-72.0615

>  <SCORE.INTRA.VDW>
0.0471847

>  <SCORE.INTRA.VDW.0>
-1.54792

>  <SCORE.INTRA.norm>
-0.119064

>  <SCORE.RESTR>
0

>  <SCORE.RESTR.CAVITY>
0

>  <SCORE.RESTR.norm>
0

>  <SCORE.SYSTEM>
0

>  <SCORE.SYSTEM.CONST>
0

>  <SCORE.SYSTEM.DIHEDRAL>
0

>  <SCORE.SYSTEM.SOLV>
0

>  <SCORE.SYSTEM.norm>
0

>  <SCORE.heavy>
22

>  <SCORE.norm>
-0.417256

>  <RMSD>
1.285

$$$$
lig.pdb
 OpenBabel11021811523D
libRbt.so/2013.1/901 2013/11/27
 22 23  0  0  0  0  0  0  0  0999 V2000
   16.4258   -9.4806   25.4967 C   0  0  1  0  0  0  0  0  0  0  0  0
   18.3341   -8.2141   26.4980 C   0  0  1  0  0  0  0  0  0  0  0  0
   17.6826   -6.7215   26.6904 C   0  0  1  0  0  0  0  0  0  0  0  0
   18.8975   -5.6646   26.7359 C   0  0  2  0  0  0  0  0  0  0  0  0
   15.1186  -10.3113   25.8778 C   0  0  1  0  0  0  0  0  0  0  0  0
   15.4817  -11.8242   26.1433 C   0  0  2  0  0  0  0  0  0  0  0  0
   16.0896  -12.4434   24.7907 C   0  0  1  0  0  0  0  0  0  0  0  0
   17.4630  -11.6802   24.3956 C   0  0  1  0  0  0  0  0  0  0  0  0
   18.1301  -12.2222   23.1011 C   0  0  0  0  0  0  0  0  0  0  0  0
   19.7932   -6.0106   28.0244 C   0  0  1  0  0  0  0  0  0  0  0  0
   20.4028   -7.4868   27.8068 C   0  0  0  0  0  0  0  0  0  0  0  0
   19.2395   -8.5629   27.7036 C   0  0  2  0  0  0  0  0  0  0  0  0
   16.4350  -13.8602   24.9482 F   0  0  0  0  0  0  0  0  0  0  0  0
   14.5270   -9.6107   27.1103 N   0  0  0  0  0  0  0  0  0  0  0  0
   18.5495  -13.5735   23.1799 N   0  0  0  0  0  0  0  0  0  0  0  0
   20.9539   -5.0698   28.1201 N   0  0  0  0  0  0  0  0  0  0  0  0
   19.7779   -9.9030   27.4902 N   0  0  0  0  0  0  0  0  0  0  0  0
   17.3576   -9.2304   26.4723 O   0  0  0  0  0  0  0  0  0  0  0  0
   16.8275   -6.4306   25.4986 O   0  0  0  0  0  0  0  0  0  0  0  0
   18.3545   -4.3983   26.9006 O   0  0  0  0  0  0  0  0  0  0  0  0
   14.4842  -12.3879   26.4130 O   0  0  0  0  0  0  0  0  0  0  0  0
   17.1092  -10.1520   24.2621 O   0  0  0  0  0  0  0  0  0  0  0  0
  1  5  1  0  0  0  0
  1 18  1  1  0  0  0
  2 18  1  1  0  0  0
  2  3  1  0  0  0  0
  2 12  1  0  0  0  0
  3 19  1  6  0  0  0
  3  4  1  0  0  0  0
  4 20  1  1  0  0  0
  4 10  1  0  0  0  0
  5  6  1  0  0  0  0
  5 14  1  1  0  0  0
  6 21  1  6  0  0  0
  7 13  1  1  0  0  0
  7  6  1  0  0  0  0
  8  9  1  6  0  0  0
  8  7  1  0  0  0  0
 10 16  1  6  0  0  0
 11 10  1  0  0  0  0
 12 17  1  6  0  0  0
 12 11  1  0  0  0  0
 15  9  1  0  0  0  0
 22  8  1  0  0  0  0
 22  1  1  0  0  0  0
M  END
>  <CHROM.1>
-158.42371983,69.43193491,-63.00274562,17.57220697,-9.38304723,26.04705785
1.95680734,-0.08787300,-2.73636526

>  <Name>
lig.pdb

>  <RI>
0

>  <Rbt.Current_Directory>
/home/itssahil/PROJECTS/Mol_Feturizer/New_Systems/rnas/5bxk

>  <Rbt.Executable>
rbdock ($Id: //depot/dev/client3/rdock/2013.1/src/exe/rbdock.cxx#4 $)

>  <Rbt.Library>
libRbt.so (2013.1, Build901 2013/11/27)

>  <Rbt.Parameter_File>
/export/apps/rDock/src/rDock_2013.1_src/data/scripts/dock_solv.prm

>  <Rbt.Receptor>
prm/pocket_docking_2.prm

>  <SCORE>
-9.14999

>  <SCORE.INTER>
-6.72066

>  <SCORE.INTER.CONST>
1

>  <SCORE.INTER.POLAR>
0

>  <SCORE.INTER.ROT>
3

>  <SCORE.INTER.SOLV>
19.8635

>  <SCORE.INTER.VDW>
-16.7016

>  <SCORE.INTER.norm>
-0.305485

>  <SCORE.INTRA>
-2.42933

>  <SCORE.INTRA.DIHEDRAL>
-4.5968

>  <SCORE.INTRA.DIHEDRAL.0>
7.18044

>  <SCORE.INTRA.POLAR>
0

>  <SCORE.INTRA.POLAR.0>
0

>  <SCORE.INTRA.REPUL>
0

>  <SCORE.INTRA.REPUL.0>
0

>  <SCORE.INTRA.SOLV>
-0.400067

>  <SCORE.INTRA.SOLV.lig_0>
-72.0615

>  <SCORE.INTRA.VDW>
0.0691051

>  <SCORE.INTRA.VDW.0>
-1.54792

>  <SCORE.INTRA.norm>
-0.110424

>  <SCORE.RESTR>
0

>  <SCORE.RESTR.CAVITY>
0

>  <SCORE.RESTR.norm>
0

>  <SCORE.SYSTEM>
0

>  <SCORE.SYSTEM.CONST>
0

>  <SCORE.SYSTEM.DIHEDRAL>
0

>  <SCORE.SYSTEM.SOLV>
0

>  <SCORE.SYSTEM.norm>
0

>  <SCORE.heavy>
22

>  <SCORE.norm>
-0.415909

>  <RMSD>
1.292

$$$$
lig.pdb
 OpenBabel11021811523D
libRbt.so/2013.1/901 2013/11/27
 22 23  0  0  0  0  0  0  0  0999 V2000
   16.5539   -9.6110   25.5337 C   0  0  1  0  0  0  0  0  0  0  0  0
   18.4770   -8.4058   26.5813 C   0  0  1  0  0  0  0  0  0  0  0  0
   17.8349   -6.9025   26.7116 C   0  0  1  0  0  0  0  0  0  0  0  0
   19.0587   -5.8596   26.8095 C   0  0  2  0  0  0  0  0  0  0  0  0
   15.2285  -10.4236   25.8900 C   0  0  1  0  0  0  0  0  0  0  0  0
   15.5579  -11.9515   26.1101 C   0  0  2  0  0  0  0  0  0  0  0  0
   16.1527  -12.5432   24.7396 C   0  0  1  0  0  0  0  0  0  0  0  0
   17.5428  -11.7991   24.3672 C   0  0  1  0  0  0  0  0  0  0  0  0
   18.1985  -12.3167   23.0570 C   0  0  0  0  0  0  0  0  0  0  0  0
   19.8746   -6.1942   28.1528 C   0  0  1  0  0  0  0  0  0  0  0  0
   20.4766   -7.6812   27.9948 C   0  0  0  0  0  0  0  0  0  0  0  0
   19.3072   -8.7448   27.8425 C   0  0  2  0  0  0  0  0  0  0  0  0
   16.4668  -13.9714   24.8546 F   0  0  0  0  0  0  0  0  0  0  0  0
   14.6518   -9.7473   27.1430 N   0  0  0  0  0  0  0  0  0  0  0  0
   18.6171  -13.6697   23.1063 N   0  0  0  0  0  0  0  0  0  0  0  0
   21.0400   -5.2659   28.2997 N   0  0  0  0  0  0  0  0  0  0  0  0
   19.8395  -10.0947   27.6823 N   0  0  0  0  0  0  0  0  0  0  0  0
   17.4904   -9.4106   26.5162 O   0  0  0  0  0  0  0  0  0  0  0  0
   17.0533   -6.6218   25.4679 O   0  0  0  0  0  0  0  0  0  0  0  0
   18.5236   -4.5842   26.9220 O   0  0  0  0  0  0  0  0  0  0  0  0
   14.5482  -12.5008   26.3630 O   0  0  0  0  0  0  0  0  0  0  0  0
   17.2229  -10.2601   24.2795 O   0  0  0  0  0  0  0  0  0  0  0  0
  1  5  1  0  0  0  0
  1 18  1  1  0  0  0
  2 18  1  1  0  0  0
  2  3  1  0  0  0  0
  2 12  1  0  0  0  0
  3 19  1  6  0  0  0
  3  4  1  0  0  0  0
  4 20  1  1  0  0  0
  4 10  1  0  0  0  0
  5  6  1  0  0  0  0
  5 14  1  1  0  0  0
  6 21  1  6  0  0  0
  7 13  1  1  0  0  0
  7  6  1  0  0  0  0
  8  9  1  6  0  0  0
  8  7  1  0  0  0  0
 10 16  1  6  0  0  0
 11 10  1  0  0  0  0
 12 17  1  6  0  0  0
 12 11  1  0  0  0  0
 15  9  1  0  0  0  0
 22  8  1  0  0  0  0
 22  1  1  0  0  0  0
M  END
>  <CHROM.1>
-157.43700074,64.63290758,-64.44026768,17.67588476,-9.53347673,26.07860066
1.96629465,-0.08443995,-2.70980211

>  <Name>
lig.pdb

>  <RI>
0

>  <Rbt.Current_Directory>
/home/itssahil/PROJECTS/Mol_Feturizer/New_Systems/rnas/5bxk

>  <Rbt.Executable>
rbdock ($Id: //depot/dev/client3/rdock/2013.1/src/exe/rbdock.cxx#4 $)

>  <Rbt.Library>
libRbt.so (2013.1, Build901 2013/11/27)

>  <Rbt.Parameter_File>
/export/apps/rDock/src/rDock_2013.1_src/data/scripts/dock_solv.prm

>  <Rbt.Receptor>
prm/pocket_docking_5.prm

>  <SCORE>
-9.29059

>  <SCORE.INTER>
-6.75256

>  <SCORE.INTER.CONST>
1

>  <SCORE.INTER.POLAR>
0

>  <SCORE.INTER.ROT>
3

>  <SCORE.INTER.SOLV>
19.6887

>  <SCORE.INTER.VDW>
-16.6646

>  <SCORE.INTER.norm>
-0.306935

>  <SCORE.INTRA>
-2.53802

>  <SCORE.INTRA.DIHEDRAL>
-4.71958

>  <SCORE.INTRA.DIHEDRAL.0>
7.18044

>  <SCORE.INTRA.POLAR>
0

>  <SCORE.INTRA.POLAR.0>
0

>  <SCORE.INTRA.REPUL>
0

>  <SCORE.INTRA.REPUL.0>
0

>  <SCORE.INTRA.SOLV>
-0.576313

>  <SCORE.INTRA.SOLV.lig_0>
-72.0615

>  <SCORE.INTRA.VDW>
0.109921

>  <SCORE.INTRA.VDW.0>
-1.54792

>  <SCORE.INTRA.norm>
-0.115365

>  <SCORE.RESTR>
0

>  <SCORE.RESTR.CAVITY>
0

>  <SCORE.RESTR.norm>
0

>  <SCORE.SYSTEM>
0

>  <SCORE.SYSTEM.CONST>
0

>  <SCORE.SYSTEM.DIHEDRAL>
0

>  <SCORE.SYSTEM.SOLV>
0

>  <SCORE.SYSTEM.norm>
0

>  <SCORE.heavy>
22

>  <SCORE.norm>
-0.422299

>  <RMSD>
1.292

$$$$
lig.pdb
 OpenBabel11021811523D
libRbt.so/2013.1/901 2013/11/27
 22 23  0  0  0  0  0  0  0  0999 V2000
   16.3726   -9.4620   25.5474 C   0  0  1  0  0  0  0  0  0  0  0  0
   18.2753   -8.2123   26.5800 C   0  0  1  0  0  0  0  0  0  0  0  0
   17.6397   -6.7074   26.7229 C   0  0  1  0  0  0  0  0  0  0  0  0
   18.8677   -5.6668   26.7881 C   0  0  2  0  0  0  0  0  0  0  0  0
   15.0751  -10.3231   25.8923 C   0  0  1  0  0  0  0  0  0  0  0  0
   15.4613  -11.8345   26.1327 C   0  0  2  0  0  0  0  0  0  0  0  0
   16.0998  -12.4153   24.7772 C   0  0  1  0  0  0  0  0  0  0  0  0
   17.4649  -11.6201   24.4179 C   0  0  1  0  0  0  0  0  0  0  0  0
   18.1603  -12.1238   23.1228 C   0  0  0  0  0  0  0  0  0  0  0  0
   19.7160   -6.0002   28.1115 C   0  0  1  0  0  0  0  0  0  0  0  0
   20.3108   -7.4888   27.9419 C   0  0  0  0  0  0  0  0  0  0  0  0
   19.1359   -8.5503   27.8210 C   0  0  2  0  0  0  0  0  0  0  0  0
   16.4683  -13.8287   24.9113 F   0  0  0  0  0  0  0  0  0  0  0  0
   14.4532   -9.6583   27.1297 N   0  0  0  0  0  0  0  0  0  0  0  0
   18.6635  -13.4460   23.2045 N   0  0  0  0  0  0  0  0  0  0  0  0
   20.8865   -5.0740   28.2274 N   0  0  0  0  0  0  0  0  0  0  0  0
   19.6614   -9.9016   27.6506 N   0  0  0  0  0  0  0  0  0  0  0  0
   17.2854   -9.2153   26.5416 O   0  0  0  0  0  0  0  0  0  0  0  0
   16.8280   -6.4277   25.4984 O   0  0  0  0  0  0  0  0  0  0  0  0
   18.3381   -4.3901   26.9110 O   0  0  0  0  0  0  0  0  0  0  0  0
   14.4703  -12.4210   26.3762 O   0  0  0  0  0  0  0  0  0  0  0  0
   17.0857  -10.0960   24.3099 O   0  0  0  0  0  0  0  0  0  0  0  0
  1  5  1  0  0  0  0
  1 18  1  1  0  0  0
  2 18  1  1  0  0  0
  2  3  1  0  0  0  0
  2 12  1  0  0  0  0
  3 19  1  6  0  0  0
  3  4  1  0  0  0  0
  4 20  1  1  0  0  0
  4 10  1  0  0  0  0
  5  6  1  0  0  0  0
  5 14  1  1  0  0  0
  6 21  1  6  0  0  0
  7 13  1  1  0  0  0
  7  6  1  0  0  0  0
  8  9  1  6  0  0  0
  8  7  1  0  0  0  0
 10 16  1  6  0  0  0
 11 10  1  0  0  0  0
 12 17  1  6  0  0  0
 12 11  1  0  0  0  0
 15  9  1  0  0  0  0
 22  8  1  0  0  0  0
 22  1  1  0  0  0  0
M  END
>  <CHROM.1>
-160.95371710,68.64064597,-66.07323935,17.54127326,-9.36582259,26.08846752
1.95189281,-0.08924244,-2.72612727

>  <Name>
lig.pdb

>  <RI>
0

>  <Rbt.Current_Directory>
/home/itssahil/PROJECTS/Mol_Feturizer/New_Systems/rnas/5bxk

>  <Rbt.Executable>
rbdock ($Id: //depot/dev/client3/rdock/2013.1/src/exe/rbdock.cxx#4 $)

>  <Rbt.Library>
libRbt.so (2013.1, Build901 2013/11/27)

>  <Rbt.Parameter_File>
/export/apps/rDock/src/rDock_2013.1_src/data/scripts/dock_solv.prm

>  <Rbt.Receptor>
prm/pocket_docking_2.prm

>  <SCORE>
-9.14258

>  <SCORE.INTER>
-6.43152

>  <SCORE.INTER.CONST>
1

>  <SCORE.INTER.POLAR>
0

>  <SCORE.INTER.ROT>
3

>  <SCORE.INTER.SOLV>
19.4901

>  <SCORE.INTER.VDW>
-16.3844

>  <SCORE.INTER.norm>
-0.292342

>  <SCORE.INTRA>
-2.71106

>  <SCORE.INTRA.DIHEDRAL>
-4.9666

>  <SCORE.INTRA.DIHEDRAL.0>
7.18044

>  <SCORE.INTRA.POLAR>
0

>  <SCORE.INTRA.POLAR.0>
0

>  <SCORE.INTRA.REPUL>
0

>  <SCORE.INTRA.REPUL.0>
0

>  <SCORE.INTRA.SOLV>
-0.572927

>  <SCORE.INTRA.SOLV.lig_0>
-72.0615

>  <SCORE.INTRA.VDW>
0.0587051

>  <SCORE.INTRA.VDW.0>
-1.54792

>  <SCORE.INTRA.norm>
-0.12323

>  <SCORE.RESTR>
0

>  <SCORE.RESTR.CAVITY>
0

>  <SCORE.RESTR.norm>
0

>  <SCORE.SYSTEM>
0

>  <SCORE.SYSTEM.CONST>
0

>  <SCORE.SYSTEM.DIHEDRAL>
0

>  <SCORE.SYSTEM.SOLV>
0

>  <SCORE.SYSTEM.norm>
0

>  <SCORE.heavy>
22

>  <SCORE.norm>
-0.415572

>  <RMSD>
1.293

$$$$
lig.pdb
 OpenBabel11021811523D
libRbt.so/2013.1/901 2013/11/27
 22 23  0  0  0  0  0  0  0  0999 V2000
   16.4048   -9.5453   25.6042 C   0  0  1  0  0  0  0  0  0  0  0  0
   18.3342   -8.3023   26.5947 C   0  0  1  0  0  0  0  0  0  0  0  0
   17.6994   -6.7970   26.7369 C   0  0  1  0  0  0  0  0  0  0  0  0
   18.9275   -5.7553   26.7802 C   0  0  2  0  0  0  0  0  0  0  0  0
   15.1113  -10.3990   25.9811 C   0  0  1  0  0  0  0  0  0  0  0  0
   15.4941  -11.9132   26.2089 C   0  0  2  0  0  0  0  0  0  0  0  0
   16.0937  -12.4954   24.8363 C   0  0  1  0  0  0  0  0  0  0  0  0
   17.4541  -11.7081   24.4433 C   0  0  1  0  0  0  0  0  0  0  0  0
   18.1127  -12.2137   23.1299 C   0  0  0  0  0  0  0  0  0  0  0  0
   19.7930   -6.0804   28.0945 C   0  0  1  0  0  0  0  0  0  0  0  0
   20.3866   -7.5696   27.9260 C   0  0  0  0  0  0  0  0  0  0  0  0
   19.2109   -8.6326   27.8265 C   0  0  2  0  0  0  0  0  0  0  0  0
   16.4567  -13.9113   24.9586 F   0  0  0  0  0  0  0  0  0  0  0  0
   14.5256   -9.7326   27.2352 N   0  0  0  0  0  0  0  0  0  0  0  0
   18.5909  -13.5463   23.1898 N   0  0  0  0  0  0  0  0  0  0  0  0
   20.9643   -5.1529   28.1898 N   0  0  0  0  0  0  0  0  0  0  0  0
   19.7350   -9.9846   27.6573 N   0  0  0  0  0  0  0  0  0  0  0  0
   17.3445   -9.3061   26.5749 O   0  0  0  0  0  0  0  0  0  0  0  0
   16.8719   -6.5250   25.5214 O   0  0  0  0  0  0  0  0  0  0  0  0
   18.3987   -4.4783   26.9024 O   0  0  0  0  0  0  0  0  0  0  0  0
   14.5061  -12.4940   26.4768 O   0  0  0  0  0  0  0  0  0  0  0  0
   17.0818  -10.1814   24.3477 O   0  0  0  0  0  0  0  0  0  0  0  0
  1  5  1  0  0  0  0
  1 18  1  1  0  0  0
  2 18  1  1  0  0  0
  2  3  1  0  0  0  0
  2 12  1  0  0  0  0
  3 19  1  6  0  0  0
  3  4  1  0  0  0  0
  4 20  1  1  0  0  0
  4 10  1  0  0  0  0
  5  6  1  0  0  0  0
  5 14  1  1  0  0  0
  6 21  1  6  0  0  0
  7 13  1  1  0  0  0
  7  6  1  0  0  0  0
  8  9  1  6  0  0  0
  8  7  1  0  0  0  0
 10 16  1  6  0  0  0
 11 10  1  0  0  0  0
 12 17  1  6  0  0  0
 12 11  1  0  0  0  0
 15  9  1  0  0  0  0
 22  8  1  0  0  0  0
 22  1  1  0  0  0  0
M  END
>  <CHROM.1>
-160.37106619,67.45638724,-65.14114731,17.57581961,-9.45048403,26.11623372
1.96317913,-0.11130914,-2.72281785

>  <Name>
lig.pdb

>  <RI>
0

>  <Rbt.Current_Directory>
/home/itssahil/PROJECTS/Mol_Feturizer/New_Systems/rnas/5bxk

>  <Rbt.Executable>
rbdock ($Id: //depot/dev/client3/rdock/2013.1/src/exe/rbdock.cxx#4 $)

>  <Rbt.Library>
libRbt.so (2013.1, Build901 2013/11/27)

>  <Rbt.Parameter_File>
/export/apps/rDock/src/rDock_2013.1_src/data/scripts/dock_solv.prm

>  <Rbt.Receptor>
prm/pocket_docking_2.prm

>  <SCORE>
-9.19938

>  <SCORE.INTER>
-6.48075

>  <SCORE.INTER.CONST>
1

>  <SCORE.INTER.POLAR>
0

>  <SCORE.INTER.ROT>
3

>  <SCORE.INTER.SOLV>
19.7332

>  <SCORE.INTER.VDW>
-16.4982

>  <SCORE.INTER.norm>
-0.294579

>  <SCORE.INTRA>
-2.71863

>  <SCORE.INTRA.DIHEDRAL>
-5.00531

>  <SCORE.INTRA.DIHEDRAL.0>
7.18044

>  <SCORE.INTRA.POLAR>
0

>  <SCORE.INTRA.POLAR.0>
0

>  <SCORE.INTRA.REPUL>
0

>  <SCORE.INTRA.REPUL.0>
0

>  <SCORE.INTRA.SOLV>
-0.585167

>  <SCORE.INTRA.SOLV.lig_0>
-72.0615

>  <SCORE.INTRA.VDW>
0.0766091

>  <SCORE.INTRA.VDW.0>
-1.54792

>  <SCORE.INTRA.norm>
-0.123574

>  <SCORE.RESTR>
0

>  <SCORE.RESTR.CAVITY>
0

>  <SCORE.RESTR.norm>
0

>  <SCORE.SYSTEM>
0

>  <SCORE.SYSTEM.CONST>
0

>  <SCORE.SYSTEM.DIHEDRAL>
0

>  <SCORE.SYSTEM.SOLV>
0

>  <SCORE.SYSTEM.norm>
0

>  <SCORE.heavy>
22

>  <SCORE.norm>
-0.418154

>  <RMSD>
1.298

$$$$
lig.pdb
 OpenBabel11021811523D
libRbt.so/2013.1/901 2013/11/27
 22 23  0  0  0  0  0  0  0  0999 V2000
   16.4171   -9.5439   25.5845 C   0  0  1  0  0  0  0  0  0  0  0  0
   18.3441   -8.3038   26.5830 C   0  0  1  0  0  0  0  0  0  0  0  0
   17.7054   -6.8004   26.7277 C   0  0  1  0  0  0  0  0  0  0  0  0
   18.9308   -5.7560   26.7788 C   0  0  2  0  0  0  0  0  0  0  0  0
   15.1206  -10.3943   25.9587 C   0  0  1  0  0  0  0  0  0  0  0  0
   15.4985  -11.9103   26.1834 C   0  0  2  0  0  0  0  0  0  0  0  0
   16.0971  -12.4914   24.8100 C   0  0  1  0  0  0  0  0  0  0  0  0
   17.4602  -11.7075   24.4195 C   0  0  1  0  0  0  0  0  0  0  0  0
   18.1181  -12.2123   23.1054 C   0  0  0  0  0  0  0  0  0  0  0  0
   19.7922   -6.0834   28.0952 C   0  0  1  0  0  0  0  0  0  0  0  0
   20.3899   -7.5707   27.9242 C   0  0  0  0  0  0  0  0  0  0  0  0
   19.2171   -8.6360   27.8169 C   0  0  2  0  0  0  0  0  0  0  0  0
   16.4556  -13.9087   24.9294 F   0  0  0  0  0  0  0  0  0  0  0  0
   14.5363   -9.7289   27.2138 N   0  0  0  0  0  0  0  0  0  0  0  0
   18.5996  -13.5437   23.1654 N   0  0  0  0  0  0  0  0  0  0  0  0
   20.9610   -5.1535   28.1979 N   0  0  0  0  0  0  0  0  0  0  0  0
   19.7449   -9.9862   27.6453 N   0  0  0  0  0  0  0  0  0  0  0  0
   17.3569   -9.3098   26.5563 O   0  0  0  0  0  0  0  0  0  0  0  0
   16.8817   -6.5264   25.5100 O   0  0  0  0  0  0  0  0  0  0  0  0
   18.3986   -4.4806   26.9032 O   0  0  0  0  0  0  0  0  0  0  0  0
   14.5084  -12.4885   26.4495 O   0  0  0  0  0  0  0  0  0  0  0  0
   17.0929  -10.1795   24.3270 O   0  0  0  0  0  0  0  0  0  0  0  0
  1  5  1  0  0  0  0
  1 18  1  1  0  0  0
  2 18  1  1  0  0  0
  2  3  1  0  0  0  0
  2 12  1  0  0  0  0
  3 19  1  6  0  0  0
  3  4  1  0  0  0  0
  4 20  1  1  0  0  0
  4 10  1  0  0  0  0
  5  6  1  0  0  0  0
  5 14  1  1  0  0  0
  6 21  1  6  0  0  0
  7 13  1  1  0  0  0
  7  6  1  0  0  0  0
  8  9  1  6  0  0  0
  8  7  1  0  0  0  0
 10 16  1  6  0  0  0
 11 10  1  0  0  0  0
 12 17  1  6  0  0  0
 12 11  1  0  0  0  0
 15  9  1  0  0  0  0
 22  8  1  0  0  0  0
 22  1  1  0  0  0  0
M  END
>  <CHROM.1>
-159.91942047,67.10069528,-65.51650937,17.58159728,-9.45007367,26.10094835
1.96226216,-0.10873550,-2.71997696

>  <Name>
lig.pdb

>  <RI>
0

>  <Rbt.Current_Directory>
/home/itssahil/PROJECTS/Mol_Feturizer/New_Systems/rnas/5bxk

>  <Rbt.Executable>
rbdock ($Id: //depot/dev/client3/rdock/2013.1/src/exe/rbdock.cxx#4 $)

>  <Rbt.Library>
libRbt.so (2013.1, Build901 2013/11/27)

>  <Rbt.Parameter_File>
/export/apps/rDock/src/rDock_2013.1_src/data/scripts/dock_solv.prm

>  <Rbt.Receptor>
prm/pocket_docking_2.prm

>  <SCORE>
-9.24275

>  <SCORE.INTER>
-6.55148

>  <SCORE.INTER.CONST>
1

>  <SCORE.INTER.POLAR>
0

>  <SCORE.INTER.ROT>
3

>  <SCORE.INTER.SOLV>
19.7708

>  <SCORE.INTER.VDW>
-16.5579

>  <SCORE.INTER.norm>
-0.297794

>  <SCORE.INTRA>
-2.69127

>  <SCORE.INTRA.DIHEDRAL>
-4.94538

>  <SCORE.INTRA.DIHEDRAL.0>
7.18044

>  <SCORE.INTRA.POLAR>
0

>  <SCORE.INTRA.POLAR.0>
0

>  <SCORE.INTRA.REPUL>
0

>  <SCORE.INTRA.REPUL.0>
0

>  <SCORE.INTRA.SOLV>
-0.592294

>  <SCORE.INTRA.SOLV.lig_0>
-72.0615

>  <SCORE.INTRA.VDW>
0.0775685

>  <SCORE.INTRA.VDW.0>
-1.54792

>  <SCORE.INTRA.norm>
-0.12233

>  <SCORE.RESTR>
0

>  <SCORE.RESTR.CAVITY>
0

>  <SCORE.RESTR.norm>
0

>  <SCORE.SYSTEM>
0

>  <SCORE.SYSTEM.CONST>
0

>  <SCORE.SYSTEM.DIHEDRAL>
0

>  <SCORE.SYSTEM.SOLV>
0

>  <SCORE.SYSTEM.norm>
0

>  <SCORE.heavy>
22

>  <SCORE.norm>
-0.420125

>  <RMSD>
1.299

$$$$
lig.pdb
 OpenBabel11021811523D
libRbt.so/2013.1/901 2013/11/27
 22 23  0  0  0  0  0  0  0  0999 V2000
   16.5017   -9.5831   25.4032 C   0  0  1  0  0  0  0  0  0  0  0  0
   18.4015   -8.3804   26.4953 C   0  0  1  0  0  0  0  0  0  0  0  0
   17.7825   -6.8722   26.6719 C   0  0  1  0  0  0  0  0  0  0  0  0
   19.0222   -5.8491   26.7798 C   0  0  2  0  0  0  0  0  0  0  0  0
   15.1690  -10.4014   25.7165 C   0  0  1  0  0  0  0  0  0  0  0  0
   15.4994  -11.9255   25.9601 C   0  0  2  0  0  0  0  0  0  0  0  0
   16.1479  -12.5235   24.6169 C   0  0  1  0  0  0  0  0  0  0  0  0
   17.5463  -11.7733   24.2904 C   0  0  1  0  0  0  0  0  0  0  0  0
   18.2530  -12.2963   23.0092 C   0  0  0  0  0  0  0  0  0  0  0  0
   19.8507   -6.2290   28.1032 C   0  0  1  0  0  0  0  0  0  0  0  0
   20.4294   -7.7197   27.8997 C   0  0  0  0  0  0  0  0  0  0  0  0
   19.2432   -8.7628   27.7363 C   0  0  2  0  0  0  0  0  0  0  0  0
   16.4662  -13.9488   24.7543 F   0  0  0  0  0  0  0  0  0  0  0  0
   14.5424   -9.7197   26.9422 N   0  0  0  0  0  0  0  0  0  0  0  0
   18.6651  -13.6504   23.0790 N   0  0  0  0  0  0  0  0  0  0  0  0
   21.0309   -5.3209   28.2579 N   0  0  0  0  0  0  0  0  0  0  0  0
   19.7543  -10.1154   27.5350 N   0  0  0  0  0  0  0  0  0  0  0  0
   17.4001   -9.3696   26.4180 O   0  0  0  0  0  0  0  0  0  0  0  0
   16.9889   -6.5492   25.4463 O   0  0  0  0  0  0  0  0  0  0  0  0
   18.5067   -4.5698   26.9315 O   0  0  0  0  0  0  0  0  0  0  0  0
   14.4843  -12.4794   26.1798 O   0  0  0  0  0  0  0  0  0  0  0  0
   17.2205  -10.2371   24.1794 O   0  0  0  0  0  0  0  0  0  0  0  0
  1  5  1  0  0  0  0
  1 18  1  1  0  0  0
  2 18  1  1  0  0  0
  2  3  1  0  0  0  0
  2 12  1  0  0  0  0
  3 19  1  6  0  0  0
  3  4  1  0  0  0  0
  4 20  1  1  0  0  0
  4 10  1  0  0  0  0
  5  6  1  0  0  0  0
  5 14  1  1  0  0  0
  6 21  1  6  0  0  0
  7 13  1  1  0  0  0
  7  6  1  0  0  0  0
  8  9  1  6  0  0  0
  8  7  1  0  0  0  0
 10 16  1  6  0  0  0
 11 10  1  0  0  0  0
 12 17  1  6  0  0  0
 12 11  1  0  0  0  0
 15  9  1  0  0  0  0
 22  8  1  0  0  0  0
 22  1  1  0  0  0  0
M  END
>  <CHROM.1>
-159.33634940,69.09489164,-63.80774161,17.63944793,-9.51977616,25.98726466
1.96206144,-0.05028086,-2.71669600

>  <Name>
lig.pdb

>  <RI>
0

>  <Rbt.Current_Directory>
/home/itssahil/PROJECTS/Mol_Feturizer/New_Systems/rnas/5bxk

>  <Rbt.Executable>
rbdock ($Id: //depot/dev/client3/rdock/2013.1/src/exe/rbdock.cxx#4 $)

>  <Rbt.Library>
libRbt.so (2013.1, Build901 2013/11/27)

>  <Rbt.Parameter_File>
/export/apps/rDock/src/rDock_2013.1_src/data/scripts/dock_solv.prm

>  <Rbt.Receptor>
prm/pocket_docking_5.prm

>  <SCORE>
-9.22262

>  <SCORE.INTER>
-6.6815

>  <SCORE.INTER.CONST>
1

>  <SCORE.INTER.POLAR>
0

>  <SCORE.INTER.ROT>
3

>  <SCORE.INTER.SOLV>
20.1699

>  <SCORE.INTER.VDW>
-16.7776

>  <SCORE.INTER.norm>
-0.303705

>  <SCORE.INTRA>
-2.54112

>  <SCORE.INTRA.DIHEDRAL>
-4.75487

>  <SCORE.INTRA.DIHEDRAL.0>
7.18044

>  <SCORE.INTRA.POLAR>
0

>  <SCORE.INTRA.POLAR.0>
0

>  <SCORE.INTRA.REPUL>
0

>  <SCORE.INTRA.REPUL.0>
0

>  <SCORE.INTRA.SOLV>
-0.462605

>  <SCORE.INTRA.SOLV.lig_0>
-72.0615

>  <SCORE.INTRA.VDW>
0.0676149

>  <SCORE.INTRA.VDW.0>
-1.54792

>  <SCORE.INTRA.norm>
-0.115506

>  <SCORE.RESTR>
0

>  <SCORE.RESTR.CAVITY>
0

>  <SCORE.RESTR.norm>
0

>  <SCORE.SYSTEM>
0

>  <SCORE.SYSTEM.CONST>
0

>  <SCORE.SYSTEM.DIHEDRAL>
0

>  <SCORE.SYSTEM.SOLV>
0

>  <SCORE.SYSTEM.norm>
0

>  <SCORE.heavy>
22

>  <SCORE.norm>
-0.41921

>  <RMSD>
1.331

$$$$
lig.pdb
 OpenBabel11021811523D
libRbt.so/2013.1/901 2013/11/27
 22 23  0  0  0  0  0  0  0  0999 V2000
   16.4951   -9.6511   25.4979 C   0  0  1  0  0  0  0  0  0  0  0  0
   18.4115   -8.4295   26.5390 C   0  0  1  0  0  0  0  0  0  0  0  0
   17.7734   -6.9277   26.7017 C   0  0  1  0  0  0  0  0  0  0  0  0
   18.9997   -5.8863   26.7836 C   0  0  2  0  0  0  0  0  0  0  0  0
   15.1769  -10.4764   25.8516 C   0  0  1  0  0  0  0  0  0  0  0  0
   15.5225  -11.9989   26.0842 C   0  0  2  0  0  0  0  0  0  0  0  0
   16.1326  -12.5930   24.7214 C   0  0  1  0  0  0  0  0  0  0  0  0
   17.5164  -11.8354   24.3525 C   0  0  1  0  0  0  0  0  0  0  0  0
   18.1861  -12.3543   23.0499 C   0  0  0  0  0  0  0  0  0  0  0  0
   19.8462   -6.2370   28.1037 C   0  0  1  0  0  0  0  0  0  0  0  0
   20.4435   -7.7222   27.9144 C   0  0  0  0  0  0  0  0  0  0  0  0
   19.2704   -8.7836   27.7766 C   0  0  2  0  0  0  0  0  0  0  0  0
   16.4623  -14.0166   24.8482 F   0  0  0  0  0  0  0  0  0  0  0  0
   14.5847   -9.7984   27.0963 N   0  0  0  0  0  0  0  0  0  0  0  0
   18.6595  -13.6878   23.1259 N   0  0  0  0  0  0  0  0  0  0  0  0
   21.0152   -5.3108   28.2346 N   0  0  0  0  0  0  0  0  0  0  0  0
   19.7981  -10.1317   27.5883 N   0  0  0  0  0  0  0  0  0  0  0  0
   17.4231   -9.4333   26.4847 O   0  0  0  0  0  0  0  0  0  0  0  0
   16.9634   -6.6321   25.4798 O   0  0  0  0  0  0  0  0  0  0  0  0
   18.4681   -4.6123   26.9234 O   0  0  0  0  0  0  0  0  0  0  0  0
   14.5175  -12.5581   26.3346 O   0  0  0  0  0  0  0  0  0  0  0  0
   17.1794  -10.3009   24.2523 O   0  0  0  0  0  0  0  0  0  0  0  0
  1  5  1  0  0  0  0
  1 18  1  1  0  0  0
  2 18  1  1  0  0  0
  2  3  1  0  0  0  0
  2 12  1  0  0  0  0
  3 19  1  6  0  0  0
  3  4  1  0  0  0  0
  4 20  1  1  0  0  0
  4 10  1  0  0  0  0
  5  6  1  0  0  0  0
  5 14  1  1  0  0  0
  6 21  1  6  0  0  0
  7 13  1  1  0  0  0
  7  6  1  0  0  0  0
  8  9  1  6  0  0  0
  8  7  1  0  0  0  0
 10 16  1  6  0  0  0
 11 10  1  0  0  0  0
 12 17  1  6  0  0  0
 12 11  1  0  0  0  0
 15  9  1  0  0  0  0
 22  8  1  0  0  0  0
 22  1  1  0  0  0  0
M  END
>  <CHROM.1>
-158.54172541,67.22486612,-66.42358480,17.63641699,-9.57055731,26.04862769
1.96271502,-0.08103141,-2.71735994

>  <Name>
lig.pdb

>  <RI>
0

>  <Rbt.Current_Directory>
/home/itssahil/PROJECTS/Mol_Feturizer/New_Systems/rnas/5bxk

>  <Rbt.Executable>
rbdock ($Id: //depot/dev/client3/rdock/2013.1/src/exe/rbdock.cxx#4 $)

>  <Rbt.Library>
libRbt.so (2013.1, Build901 2013/11/27)

>  <Rbt.Parameter_File>
/export/apps/rDock/src/rDock_2013.1_src/data/scripts/dock_solv.prm

>  <Rbt.Receptor>
prm/pocket_docking_5.prm

>  <SCORE>
-9.33362

>  <SCORE.INTER>
-6.79294

>  <SCORE.INTER.CONST>
1

>  <SCORE.INTER.POLAR>
0

>  <SCORE.INTER.ROT>
3

>  <SCORE.INTER.SOLV>
19.9129

>  <SCORE.INTER.VDW>
-16.7663

>  <SCORE.INTER.norm>
-0.30877

>  <SCORE.INTRA>
-2.54111

>  <SCORE.INTRA.DIHEDRAL>
-4.67713

>  <SCORE.INTRA.DIHEDRAL.0>
7.18044

>  <SCORE.INTRA.POLAR>
0

>  <SCORE.INTRA.POLAR.0>
0

>  <SCORE.INTRA.REPUL>
0

>  <SCORE.INTRA.REPUL.0>
0

>  <SCORE.INTRA.SOLV>
-0.543428

>  <SCORE.INTRA.SOLV.lig_0>
-72.0615

>  <SCORE.INTRA.VDW>
0.0691647

>  <SCORE.INTRA.VDW.0>
-1.54792

>  <SCORE.INTRA.norm>
-0.115505

>  <SCORE.RESTR>
0.000437556

>  <SCORE.RESTR.CAVITY>
0.000437556

>  <SCORE.RESTR.norm>
1.98889e-05

>  <SCORE.SYSTEM>
0

>  <SCORE.SYSTEM.CONST>
0

>  <SCORE.SYSTEM.DIHEDRAL>
0

>  <SCORE.SYSTEM.SOLV>
0

>  <SCORE.SYSTEM.norm>
0

>  <SCORE.heavy>
22

>  <SCORE.norm>
-0.424256

>  <RMSD>
1.341

$$$$
lig.pdb
 OpenBabel11021811523D
libRbt.so/2013.1/901 2013/11/27
 22 23  0  0  0  0  0  0  0  0999 V2000
   16.4989   -9.6597   25.5007 C   0  0  1  0  0  0  0  0  0  0  0  0
   18.4108   -8.4307   26.5413 C   0  0  1  0  0  0  0  0  0  0  0  0
   17.7690   -6.9308   26.7077 C   0  0  1  0  0  0  0  0  0  0  0  0
   18.9927   -5.8862   26.7878 C   0  0  2  0  0  0  0  0  0  0  0  0
   15.1862  -10.4945   25.8526 C   0  0  1  0  0  0  0  0  0  0  0  0
   15.5421  -12.0149   26.0831 C   0  0  2  0  0  0  0  0  0  0  0  0
   16.1568  -12.6029   24.7197 C   0  0  1  0  0  0  0  0  0  0  0  0
   17.5355  -11.8354   24.3525 C   0  0  1  0  0  0  0  0  0  0  0  0
   18.2093  -12.3477   23.0495 C   0  0  0  0  0  0  0  0  0  0  0  0
   19.8435   -6.2363   28.1053 C   0  0  1  0  0  0  0  0  0  0  0  0
   20.4444   -7.7196   27.9125 C   0  0  0  0  0  0  0  0  0  0  0  0
   19.2738   -8.7840   27.7763 C   0  0  2  0  0  0  0  0  0  0  0  0
   16.4961  -14.0244   24.8444 F   0  0  0  0  0  0  0  0  0  0  0  0
   14.5889   -9.8224   27.0980 N   0  0  0  0  0  0  0  0  0  0  0  0
   18.6609  -13.6895   23.1121 N   0  0  0  0  0  0  0  0  0  0  0  0
   21.0103   -5.3071   28.2344 N   0  0  0  0  0  0  0  0  0  0  0  0
   19.8048  -10.1304   27.5848 N   0  0  0  0  0  0  0  0  0  0  0  0
   17.4250   -9.4370   26.4883 O   0  0  0  0  0  0  0  0  0  0  0  0
   16.9551   -6.6358   25.4882 O   0  0  0  0  0  0  0  0  0  0  0  0
   18.4579   -4.6138   26.9307 O   0  0  0  0  0  0  0  0  0  0  0  0
   14.5409  -12.5813   26.3322 O   0  0  0  0  0  0  0  0  0  0  0  0
   17.1881  -10.3030   24.2545 O   0  0  0  0  0  0  0  0  0  0  0  0
  1  5  1  0  0  0  0
  1 18  1  1  0  0  0
  2 18  1  1  0  0  0
  2  3  1  0  0  0  0
  2 12  1  0  0  0  0
  3 19  1  6  0  0  0
  3  4  1  0  0  0  0
  4 20  1  1  0  0  0
  4 10  1  0  0  0  0
  5  6  1  0  0  0  0
  5 14  1  1  0  0  0
  6 21  1  6  0  0  0
  7 13  1  1  0  0  0
  7  6  1  0  0  0  0
  8  9  1  6  0  0  0
  8  7  1  0  0  0  0
 10 16  1  6  0  0  0
 11 10  1  0  0  0  0
 12 17  1  6  0  0  0
 12 11  1  0  0  0  0
 15  9  1  0  0  0  0
 22  8  1  0  0  0  0
 22  1  1  0  0  0  0
M  END
>  <CHROM.1>
-158.88256965,67.54098231,-64.87228302,17.64337322,-9.57563837,26.04918946
1.95912913,-0.08397883,-2.71638187

>  <Name>
lig.pdb

>  <RI>
0

>  <Rbt.Current_Directory>
/home/itssahil/PROJECTS/Mol_Feturizer/New_Systems/rnas/5bxk

>  <Rbt.Executable>
rbdock ($Id: //depot/dev/client3/rdock/2013.1/src/exe/rbdock.cxx#4 $)

>  <Rbt.Library>
libRbt.so (2013.1, Build901 2013/11/27)

>  <Rbt.Parameter_File>
/export/apps/rDock/src/rDock_2013.1_src/data/scripts/dock_solv.prm

>  <Rbt.Receptor>
prm/pocket_docking_3.prm

>  <SCORE>
-9.35165

>  <SCORE.INTER>
-6.7802

>  <SCORE.INTER.CONST>
1

>  <SCORE.INTER.POLAR>
0

>  <SCORE.INTER.ROT>
3

>  <SCORE.INTER.SOLV>
19.9204

>  <SCORE.INTER.VDW>
-16.7603

>  <SCORE.INTER.norm>
-0.308191

>  <SCORE.INTRA>
-2.57146

>  <SCORE.INTRA.DIHEDRAL>
-4.77234

>  <SCORE.INTRA.DIHEDRAL.0>
7.18044

>  <SCORE.INTRA.POLAR>
0

>  <SCORE.INTRA.POLAR.0>
0

>  <SCORE.INTRA.REPUL>
0

>  <SCORE.INTRA.REPUL.0>
0

>  <SCORE.INTRA.SOLV>
-0.522583

>  <SCORE.INTRA.SOLV.lig_0>
-72.0615

>  <SCORE.INTRA.VDW>
0.0760052

>  <SCORE.INTRA.VDW.0>
-1.54792

>  <SCORE.INTRA.norm>
-0.116884

>  <SCORE.RESTR>
0

>  <SCORE.RESTR.CAVITY>
0

>  <SCORE.RESTR.norm>
0

>  <SCORE.SYSTEM>
0

>  <SCORE.SYSTEM.CONST>
0

>  <SCORE.SYSTEM.DIHEDRAL>
0

>  <SCORE.SYSTEM.SOLV>
0

>  <SCORE.SYSTEM.norm>
0

>  <SCORE.heavy>
22

>  <SCORE.norm>
-0.425075

>  <RMSD>
1.351

$$$$
lig.pdb
 OpenBabel11021811523D
libRbt.so/2013.1/901 2013/11/27
 22 23  0  0  0  0  0  0  0  0999 V2000
   16.5014   -9.6616   25.4912 C   0  0  1  0  0  0  0  0  0  0  0  0
   18.4102   -8.4306   26.5349 C   0  0  1  0  0  0  0  0  0  0  0  0
   17.7662   -6.9308   26.6931 C   0  0  1  0  0  0  0  0  0  0  0  0
   18.9885   -5.8847   26.7760 C   0  0  2  0  0  0  0  0  0  0  0  0
   15.1884  -10.4968   25.8415 C   0  0  1  0  0  0  0  0  0  0  0  0
   15.5445  -12.0169   26.0734 C   0  0  2  0  0  0  0  0  0  0  0  0
   16.1617  -12.6054   24.7113 C   0  0  1  0  0  0  0  0  0  0  0  0
   17.5407  -11.8376   24.3460 C   0  0  1  0  0  0  0  0  0  0  0  0
   18.2169  -12.3504   23.0444 C   0  0  0  0  0  0  0  0  0  0  0  0
   19.8331   -6.2297   28.0988 C   0  0  1  0  0  0  0  0  0  0  0  0
   20.4363   -7.7130   27.9138 C   0  0  0  0  0  0  0  0  0  0  0  0
   19.2675   -8.7791   27.7752 C   0  0  2  0  0  0  0  0  0  0  0  0
   16.5014  -14.0267   24.8375 F   0  0  0  0  0  0  0  0  0  0  0  0
   14.5887   -9.8242   27.0855 N   0  0  0  0  0  0  0  0  0  0  0  0
   18.6686  -13.6920   23.1085 N   0  0  0  0  0  0  0  0  0  0  0  0
   20.9983   -5.2990   28.2307 N   0  0  0  0  0  0  0  0  0  0  0  0
   19.8006  -10.1255   27.5908 N   0  0  0  0  0  0  0  0  0  0  0  0
   17.4257   -9.4381   26.4802 O   0  0  0  0  0  0  0  0  0  0  0  0
   16.9581   -6.6405   25.4687 O   0  0  0  0  0  0  0  0  0  0  0  0
   18.4518   -4.6124   26.9121 O   0  0  0  0  0  0  0  0  0  0  0  0
   14.5431  -12.5836   26.3212 O   0  0  0  0  0  0  0  0  0  0  0  0
   17.1929  -10.3054   24.2465 O   0  0  0  0  0  0  0  0  0  0  0  0
  1  5  1  0  0  0  0
  1 18  1  1  0  0  0
  2 18  1  1  0  0  0
  2  3  1  0  0  0  0
  2 12  1  0  0  0  0
  3 19  1  6  0  0  0
  3  4  1  0  0  0  0
  4 20  1  1  0  0  0
  4 10  1  0  0  0  0
  5  6  1  0  0  0  0
  5 14  1  1  0  0  0
  6 21  1  6  0  0  0
  7 13  1  1  0  0  0
  7  6  1  0  0  0  0
  8  9  1  6  0  0  0
  8  7  1  0  0  0  0
 10 16  1  6  0  0  0
 11 10  1  0  0  0  0
 12 17  1  6  0  0  0
 12 11  1  0  0  0  0
 15  9  1  0  0  0  0
 22  8  1  0  0  0  0
 22  1  1  0  0  0  0
M  END
>  <CHROM.1>
-158.82247666,67.26233792,-64.85731630,17.64321260,-9.57559396,26.04110131
1.95746027,-0.08298900,-2.71729616

>  <Name>
lig.pdb

>  <RI>
0

>  <Rbt.Current_Directory>
/home/itssahil/PROJECTS/Mol_Feturizer/New_Systems/rnas/5bxk

>  <Rbt.Executable>
rbdock ($Id: //depot/dev/client3/rdock/2013.1/src/exe/rbdock.cxx#4 $)

>  <Rbt.Library>
libRbt.so (2013.1, Build901 2013/11/27)

>  <Rbt.Parameter_File>
/export/apps/rDock/src/rDock_2013.1_src/data/scripts/dock_solv.prm

>  <Rbt.Receptor>
prm/pocket_docking_3.prm

>  <SCORE>
-9.3558

>  <SCORE.INTER>
-6.77771

>  <SCORE.INTER.CONST>
1

>  <SCORE.INTER.POLAR>
0

>  <SCORE.INTER.ROT>
3

>  <SCORE.INTER.SOLV>
19.9301

>  <SCORE.INTER.VDW>
-16.7619

>  <SCORE.INTER.norm>
-0.308078

>  <SCORE.INTRA>
-2.57809

>  <SCORE.INTRA.DIHEDRAL>
-4.78295

>  <SCORE.INTRA.DIHEDRAL.0>
7.18044

>  <SCORE.INTRA.POLAR>
0

>  <SCORE.INTRA.POLAR.0>
0

>  <SCORE.INTRA.REPUL>
0

>  <SCORE.INTRA.REPUL.0>
0

>  <SCORE.INTRA.SOLV>
-0.531336

>  <SCORE.INTRA.SOLV.lig_0>
-72.0615

>  <SCORE.INTRA.VDW>
0.0790521

>  <SCORE.INTRA.VDW.0>
-1.54792

>  <SCORE.INTRA.norm>
-0.117186

>  <SCORE.RESTR>
0

>  <SCORE.RESTR.CAVITY>
0

>  <SCORE.RESTR.norm>
0

>  <SCORE.SYSTEM>
0

>  <SCORE.SYSTEM.CONST>
0

>  <SCORE.SYSTEM.DIHEDRAL>
0

>  <SCORE.SYSTEM.SOLV>
0

>  <SCORE.SYSTEM.norm>
0

>  <SCORE.heavy>
22

>  <SCORE.norm>
-0.425263

>  <RMSD>
1.357

$$$$
lig.pdb
 OpenBabel11021811523D
libRbt.so/2013.1/901 2013/11/27
 22 23  0  0  0  0  0  0  0  0999 V2000
   16.6767   -9.6801   25.3737 C   0  0  1  0  0  0  0  0  0  0  0  0
   18.5694   -8.4800   26.4810 C   0  0  1  0  0  0  0  0  0  0  0  0
   17.9292   -6.9744   26.5924 C   0  0  1  0  0  0  0  0  0  0  0  0
   19.1534   -5.9360   26.7275 C   0  0  2  0  0  0  0  0  0  0  0  0
   15.3317  -10.4764   25.6913 C   0  0  1  0  0  0  0  0  0  0  0  0
   15.6377  -12.0057   25.9342 C   0  0  2  0  0  0  0  0  0  0  0  0
   16.2723  -12.6145   24.5893 C   0  0  1  0  0  0  0  0  0  0  0  0
   17.6819  -11.8874   24.2584 C   0  0  1  0  0  0  0  0  0  0  0  0
   18.3760  -12.4222   22.9752 C   0  0  0  0  0  0  0  0  0  0  0  0
   19.9272   -6.2740   28.0946 C   0  0  1  0  0  0  0  0  0  0  0  0
   20.5282   -7.7631   27.9543 C   0  0  0  0  0  0  0  0  0  0  0  0
   19.3600   -8.8224   27.7665 C   0  0  2  0  0  0  0  0  0  0  0  0
   16.5676  -14.0448   24.7260 F   0  0  0  0  0  0  0  0  0  0  0  0
   14.7200   -9.7842   26.9186 N   0  0  0  0  0  0  0  0  0  0  0  0
   18.8000  -13.7719   23.0578 N   0  0  0  0  0  0  0  0  0  0  0  0
   21.0910   -5.3500   28.2769 N   0  0  0  0  0  0  0  0  0  0  0  0
   19.8919  -10.1742   27.6219 N   0  0  0  0  0  0  0  0  0  0  0  0
   17.5815   -9.4812   26.3858 O   0  0  0  0  0  0  0  0  0  0  0  0
   17.1864   -6.6904   25.3259 O   0  0  0  0  0  0  0  0  0  0  0  0
   18.6198   -4.6587   26.8243 O   0  0  0  0  0  0  0  0  0  0  0  0
   14.6144  -12.5428   26.1570 O   0  0  0  0  0  0  0  0  0  0  0  0
   17.3810  -10.3461   24.1480 O   0  0  0  0  0  0  0  0  0  0  0  0
  1  5  1  0  0  0  0
  1 18  1  1  0  0  0
  2 18  1  1  0  0  0
  2  3  1  0  0  0  0
  2 12  1  0  0  0  0
  3 19  1  6  0  0  0
  3  4  1  0  0  0  0
  4 20  1  1  0  0  0
  4 10  1  0  0  0  0
  5  6  1  0  0  0  0
  5 14  1  1  0  0  0
  6 21  1  6  0  0  0
  7 13  1  1  0  0  0
  7  6  1  0  0  0  0
  8  9  1  6  0  0  0
  8  7  1  0  0  0  0
 10 16  1  6  0  0  0
 11 10  1  0  0  0  0
 12 17  1  6  0  0  0
 12 11  1  0  0  0  0
 15  9  1  0  0  0  0
 22  8  1  0  0  0  0
 22  1  1  0  0  0  0
M  END
>  <CHROM.1>
-156.94014448,64.83266973,-65.50756861,17.77547019,-9.60705154,25.96215595
1.95789585,-0.04678194,-2.71709743

>  <Name>
lig.pdb

>  <RI>
0

>  <Rbt.Current_Directory>
/home/itssahil/PROJECTS/Mol_Feturizer/New_Systems/rnas/5bxk

>  <Rbt.Executable>
rbdock ($Id: //depot/dev/client3/rdock/2013.1/src/exe/rbdock.cxx#4 $)

>  <Rbt.Library>
libRbt.so (2013.1, Build901 2013/11/27)

>  <Rbt.Parameter_File>
/export/apps/rDock/src/rDock_2013.1_src/data/scripts/dock_solv.prm

>  <Rbt.Receptor>
prm/pocket_docking_4.prm

>  <SCORE>
-9.3578

>  <SCORE.INTER>
-6.88203

>  <SCORE.INTER.CONST>
1

>  <SCORE.INTER.POLAR>
0

>  <SCORE.INTER.ROT>
3

>  <SCORE.INTER.SOLV>
20.2954

>  <SCORE.INTER.VDW>
-16.9531

>  <SCORE.INTER.norm>
-0.312819

>  <SCORE.INTRA>
-2.47577

>  <SCORE.INTRA.DIHEDRAL>
-4.58874

>  <SCORE.INTRA.DIHEDRAL.0>
7.18044

>  <SCORE.INTRA.POLAR>
0

>  <SCORE.INTRA.POLAR.0>
0

>  <SCORE.INTRA.REPUL>
0

>  <SCORE.INTRA.REPUL.0>
0

>  <SCORE.INTRA.SOLV>
-0.562483

>  <SCORE.INTRA.SOLV.lig_0>
-72.0615

>  <SCORE.INTRA.VDW>
0.0998422

>  <SCORE.INTRA.VDW.0>
-1.54792

>  <SCORE.INTRA.norm>
-0.112535

>  <SCORE.RESTR>
0

>  <SCORE.RESTR.CAVITY>
0

>  <SCORE.RESTR.norm>
0

>  <SCORE.SYSTEM>
0

>  <SCORE.SYSTEM.CONST>
0

>  <SCORE.SYSTEM.DIHEDRAL>
0

>  <SCORE.SYSTEM.SOLV>
0

>  <SCORE.SYSTEM.norm>
0

>  <SCORE.heavy>
22

>  <SCORE.norm>
-0.425354

>  <RMSD>
1.364

$$$$
lig.pdb
 OpenBabel11021811523D
libRbt.so/2013.1/901 2013/11/27
 22 23  0  0  0  0  0  0  0  0999 V2000
   16.5011   -9.5710   25.3782 C   0  0  1  0  0  0  0  0  0  0  0  0
   18.4001   -8.3350   26.4340 C   0  0  1  0  0  0  0  0  0  0  0  0
   17.7628   -6.8270   26.5296 C   0  0  1  0  0  0  0  0  0  0  0  0
   18.9899   -5.7871   26.6189 C   0  0  2  0  0  0  0  0  0  0  0  0
   15.1763  -10.3910   25.7200 C   0  0  1  0  0  0  0  0  0  0  0  0
   15.5174  -11.9094   25.9833 C   0  0  2  0  0  0  0  0  0  0  0  0
   16.1533  -12.5250   24.6421 C   0  0  1  0  0  0  0  0  0  0  0  0
   17.5439  -11.7731   24.2875 C   0  0  1  0  0  0  0  0  0  0  0  0
   18.2383  -12.3125   23.0064 C   0  0  0  0  0  0  0  0  0  0  0  0
   19.7921   -6.0991   27.9758 C   0  0  1  0  0  0  0  0  0  0  0  0
   20.3895   -7.5911   27.8518 C   0  0  0  0  0  0  0  0  0  0  0  0
   19.2173   -8.6530   27.7091 C   0  0  2  0  0  0  0  0  0  0  0  0
   16.4805  -13.9464   24.7978 F   0  0  0  0  0  0  0  0  0  0  0  0
   14.5606   -9.6933   26.9422 N   0  0  0  0  0  0  0  0  0  0  0  0
   18.6636  -13.6614   23.0945 N   0  0  0  0  0  0  0  0  0  0  0  0
   20.9598   -5.1726   28.1157 N   0  0  0  0  0  0  0  0  0  0  0  0
   19.7457  -10.0077   27.5796 N   0  0  0  0  0  0  0  0  0  0  0  0
   17.4101   -9.3372   26.3790 O   0  0  0  0  0  0  0  0  0  0  0  0
   16.9938   -6.5672   25.2737 O   0  0  0  0  0  0  0  0  0  0  0  0
   18.4589   -4.5078   26.7020 O   0  0  0  0  0  0  0  0  0  0  0  0
   14.5079  -12.4648   26.2235 O   0  0  0  0  0  0  0  0  0  0  0  0
   17.2089  -10.2404   24.1565 O   0  0  0  0  0  0  0  0  0  0  0  0
  1  5  1  0  0  0  0
  1 18  1  1  0  0  0
  2 18  1  1  0  0  0
  2  3  1  0  0  0  0
  2 12  1  0  0  0  0
  3 19  1  6  0  0  0
  3  4  1  0  0  0  0
  4 20  1  1  0  0  0
  4 10  1  0  0  0  0
  5  6  1  0  0  0  0
  5 14  1  1  0  0  0
  6 21  1  6  0  0  0
  7 13  1  1  0  0  0
  7  6  1  0  0  0  0
  8  9  1  6  0  0  0
  8  7  1  0  0  0  0
 10 16  1  6  0  0  0
 11 10  1  0  0  0  0
 12 17  1  6  0  0  0
 12 11  1  0  0  0  0
 15  9  1  0  0  0  0
 22  8  1  0  0  0  0
 22  1  1  0  0  0  0
M  END
>  <CHROM.1>
-158.76129650,66.21134064,-64.08075806,17.62941032,-9.48013759,25.94191985
1.95604406,-0.06693077,-2.73514248

>  <Name>
lig.pdb

>  <RI>
0

>  <Rbt.Current_Directory>
/home/itssahil/PROJECTS/Mol_Feturizer/New_Systems/rnas/5bxk

>  <Rbt.Executable>
rbdock ($Id: //depot/dev/client3/rdock/2013.1/src/exe/rbdock.cxx#4 $)

>  <Rbt.Library>
libRbt.so (2013.1, Build901 2013/11/27)

>  <Rbt.Parameter_File>
/export/apps/rDock/src/rDock_2013.1_src/data/scripts/dock_solv.prm

>  <Rbt.Receptor>
prm/pocket_docking_6.prm

>  <SCORE>
-9.33746

>  <SCORE.INTER>
-6.71979

>  <SCORE.INTER.CONST>
1

>  <SCORE.INTER.POLAR>
0

>  <SCORE.INTER.ROT>
3

>  <SCORE.INTER.SOLV>
20.4399

>  <SCORE.INTER.VDW>
-16.8932

>  <SCORE.INTER.norm>
-0.305445

>  <SCORE.INTRA>
-2.61767

>  <SCORE.INTRA.DIHEDRAL>
-4.86616

>  <SCORE.INTRA.DIHEDRAL.0>
7.18044

>  <SCORE.INTRA.POLAR>
0

>  <SCORE.INTRA.POLAR.0>
0

>  <SCORE.INTRA.REPUL>
0

>  <SCORE.INTRA.REPUL.0>
0

>  <SCORE.INTRA.SOLV>
-0.561092

>  <SCORE.INTRA.SOLV.lig_0>
-72.0615

>  <SCORE.INTRA.VDW>
0.0959553

>  <SCORE.INTRA.VDW.0>
-1.54792

>  <SCORE.INTRA.norm>
-0.118985

>  <SCORE.RESTR>
0

>  <SCORE.RESTR.CAVITY>
0

>  <SCORE.RESTR.norm>
0

>  <SCORE.SYSTEM>
0

>  <SCORE.SYSTEM.CONST>
0

>  <SCORE.SYSTEM.DIHEDRAL>
0

>  <SCORE.SYSTEM.SOLV>
0

>  <SCORE.SYSTEM.norm>
0

>  <SCORE.heavy>
22

>  <SCORE.norm>
-0.42443

>  <RMSD>
1.366

$$$$
lig.pdb
 OpenBabel11021811523D
libRbt.so/2013.1/901 2013/11/27
 22 23  0  0  0  0  0  0  0  0999 V2000
   16.5310   -9.6720   25.4670 C   0  0  1  0  0  0  0  0  0  0  0  0
   18.4402   -8.4480   26.5182 C   0  0  1  0  0  0  0  0  0  0  0  0
   17.7826   -6.9537   26.6727 C   0  0  1  0  0  0  0  0  0  0  0  0
   18.9957   -5.8982   26.7711 C   0  0  2  0  0  0  0  0  0  0  0  0
   15.2196  -10.5095   25.8176 C   0  0  1  0  0  0  0  0  0  0  0  0
   15.5750  -12.0332   26.0262 C   0  0  2  0  0  0  0  0  0  0  0  0
   16.1792  -12.6046   24.6511 C   0  0  1  0  0  0  0  0  0  0  0  0
   17.5564  -11.8342   24.2839 C   0  0  1  0  0  0  0  0  0  0  0  0
   18.2202  -12.3309   22.9697 C   0  0  0  0  0  0  0  0  0  0  0  0
   19.8285   -6.2395   28.1022 C   0  0  1  0  0  0  0  0  0  0  0  0
   20.4455   -7.7176   27.9206 C   0  0  0  0  0  0  0  0  0  0  0  0
   19.2866   -8.7925   27.7671 C   0  0  2  0  0  0  0  0  0  0  0  0
   16.5174  -14.0280   24.7554 F   0  0  0  0  0  0  0  0  0  0  0  0
   14.6321   -9.8524   27.0757 N   0  0  0  0  0  0  0  0  0  0  0  0
   18.6840  -13.6691   23.0172 N   0  0  0  0  0  0  0  0  0  0  0  0
   20.9848   -5.2999   28.2488 N   0  0  0  0  0  0  0  0  0  0  0  0
   19.8324  -10.1343   27.5856 N   0  0  0  0  0  0  0  0  0  0  0  0
   17.4644   -9.4631   26.4507 O   0  0  0  0  0  0  0  0  0  0  0  0
   16.9857   -6.6671   25.4402 O   0  0  0  0  0  0  0  0  0  0  0  0
   18.4475   -4.6304   26.9041 O   0  0  0  0  0  0  0  0  0  0  0  0
   14.5748  -12.6014   26.2753 O   0  0  0  0  0  0  0  0  0  0  0  0
   17.2104  -10.3003   24.2078 O   0  0  0  0  0  0  0  0  0  0  0  0
  1  5  1  0  0  0  0
  1 18  1  1  0  0  0
  2 18  1  1  0  0  0
  2  3  1  0  0  0  0
  2 12  1  0  0  0  0
  3 19  1  6  0  0  0
  3  4  1  0  0  0  0
  4 20  1  1  0  0  0
  4 10  1  0  0  0  0
  5  6  1  0  0  0  0
  5 14  1  1  0  0  0
  6 21  1  6  0  0  0
  7 13  1  1  0  0  0
  7  6  1  0  0  0  0
  8  9  1  6  0  0  0
  8  7  1  0  0  0  0
 10 16  1  6  0  0  0
 11 10  1  0  0  0  0
 12 17  1  6  0  0  0
 12 11  1  0  0  0  0
 15  9  1  0  0  0  0
 22  8  1  0  0  0  0
 22  1  1  0  0  0  0
M  END
>  <CHROM.1>
-157.94880515,65.50020429,-65.55564369,17.66187594,-9.58453832,26.01045552
1.95515626,-0.09133758,-2.70406825

>  <Name>
lig.pdb

>  <RI>
0

>  <Rbt.Current_Directory>
/home/itssahil/PROJECTS/Mol_Feturizer/New_Systems/rnas/5bxk

>  <Rbt.Executable>
rbdock ($Id: //depot/dev/client3/rdock/2013.1/src/exe/rbdock.cxx#4 $)

>  <Rbt.Library>
libRbt.so (2013.1, Build901 2013/11/27)

>  <Rbt.Parameter_File>
/export/apps/rDock/src/rDock_2013.1_src/data/scripts/dock_solv.prm

>  <Rbt.Receptor>
prm/pocket_docking_5.prm

>  <SCORE>
-9.28864

>  <SCORE.INTER>
-6.73167

>  <SCORE.INTER.CONST>
1

>  <SCORE.INTER.POLAR>
0

>  <SCORE.INTER.ROT>
3

>  <SCORE.INTER.SOLV>
20.135

>  <SCORE.INTER.VDW>
-16.7994

>  <SCORE.INTER.norm>
-0.305985

>  <SCORE.INTRA>
-2.55697

>  <SCORE.INTRA.DIHEDRAL>
-4.72251

>  <SCORE.INTRA.DIHEDRAL.0>
7.18044

>  <SCORE.INTRA.POLAR>
0

>  <SCORE.INTRA.POLAR.0>
0

>  <SCORE.INTRA.REPUL>
0

>  <SCORE.INTRA.REPUL.0>
0

>  <SCORE.INTRA.SOLV>
-0.57752

>  <SCORE.INTRA.SOLV.lig_0>
-72.0615

>  <SCORE.INTRA.VDW>
0.0930464

>  <SCORE.INTRA.VDW.0>
-1.54792

>  <SCORE.INTRA.norm>
-0.116226

>  <SCORE.RESTR>
0

>  <SCORE.RESTR.CAVITY>
0

>  <SCORE.RESTR.norm>
0

>  <SCORE.SYSTEM>
0

>  <SCORE.SYSTEM.CONST>
0

>  <SCORE.SYSTEM.DIHEDRAL>
0

>  <SCORE.SYSTEM.SOLV>
0

>  <SCORE.SYSTEM.norm>
0

>  <SCORE.heavy>
22

>  <SCORE.norm>
-0.422211

>  <RMSD>
1.373

$$$$
lig.pdb
 OpenBabel11021811523D
libRbt.so/2013.1/901 2013/11/27
 22 23  0  0  0  0  0  0  0  0999 V2000
   16.5548   -9.8300   25.3929 C   0  0  1  0  0  0  0  0  0  0  0  0
   18.4934   -8.6059   26.3890 C   0  0  1  0  0  0  0  0  0  0  0  0
   17.8266   -7.1115   26.4950 C   0  0  1  0  0  0  0  0  0  0  0  0
   19.0332   -6.0469   26.5722 C   0  0  2  0  0  0  0  0  0  0  0  0
   15.1815  -10.5139   25.8291 C   0  0  1  0  0  0  0  0  0  0  0  0
   15.4035  -12.0417   26.1575 C   0  0  2  0  0  0  0  0  0  0  0  0
   15.9252  -12.7747   24.8260 C   0  0  1  0  0  0  0  0  0  0  0  0
   17.3578  -12.1649   24.3780 C   0  0  1  0  0  0  0  0  0  0  0  0
   17.9468  -12.8242   23.1002 C   0  0  0  0  0  0  0  0  0  0  0  0
   19.8573   -6.3448   27.9191 C   0  0  1  0  0  0  0  0  0  0  0  0
   20.4836   -7.8241   27.7851 C   0  0  0  0  0  0  0  0  0  0  0  0
   19.3318   -8.9095   27.6538 C   0  0  2  0  0  0  0  0  0  0  0  0
   16.1370  -14.2099   25.0425 F   0  0  0  0  0  0  0  0  0  0  0  0
   14.6816   -9.7068   27.0367 N   0  0  0  0  0  0  0  0  0  0  0  0
   19.3090  -12.5179   22.8579 N   0  0  0  0  0  0  0  0  0  0  0  0
   21.0074   -5.3949   28.0473 N   0  0  0  0  0  0  0  0  0  0  0  0
   19.8862  -10.2529   27.5154 N   0  0  0  0  0  0  0  0  0  0  0  0
   17.5236   -9.6280   26.3433 O   0  0  0  0  0  0  0  0  0  0  0  0
   17.0379   -6.8651   25.2486 O   0  0  0  0  0  0  0  0  0  0  0  0
   18.4771   -4.7789   26.6642 O   0  0  0  0  0  0  0  0  0  0  0  0
   14.3620  -12.4948   26.4660 O   0  0  0  0  0  0  0  0  0  0  0  0
   17.1488  -10.6170   24.1806 O   0  0  0  0  0  0  0  0  0  0  0  0
  1  5  1  0  0  0  0
  1 18  1  1  0  0  0
  2 18  1  1  0  0  0
  2  3  1  0  0  0  0
  2 12  1  0  0  0  0
  3 19  1  6  0  0  0
  3  4  1  0  0  0  0
  4 20  1  1  0  0  0
  4 10  1  0  0  0  0
  5  6  1  0  0  0  0
  5 14  1  1  0  0  0
  6 21  1  6  0  0  0
  7 13  1  1  0  0  0
  7  6  1  0  0  0  0
  8  9  1  6  0  0  0
  8  7  1  0  0  0  0
 10 16  1  6  0  0  0
 11 10  1  0  0  0  0
 12 17  1  6  0  0  0
 12 11  1  0  0  0  0
 15  9  1  0  0  0  0
 22  8  1  0  0  0  0
 22  1  1  0  0  0  0
M  END
>  <CHROM.1>
-149.95188152,61.84746250,-167.01327535,17.63717417,-9.66730084,25.96815509
2.01430322,-0.17860321,-2.69803110

>  <Name>
lig.pdb

>  <RI>
0

>  <Rbt.Current_Directory>
/home/itssahil/PROJECTS/Mol_Feturizer/New_Systems/rnas/5bxk

>  <Rbt.Executable>
rbdock ($Id: //depot/dev/client3/rdock/2013.1/src/exe/rbdock.cxx#4 $)

>  <Rbt.Library>
libRbt.so (2013.1, Build901 2013/11/27)

>  <Rbt.Parameter_File>
/export/apps/rDock/src/rDock_2013.1_src/data/scripts/dock_solv.prm

>  <Rbt.Receptor>
prm/pocket_docking_3.prm

>  <SCORE>
-7.9561

>  <SCORE.INTER>
-5.92992

>  <SCORE.INTER.CONST>
1

>  <SCORE.INTER.POLAR>
0

>  <SCORE.INTER.ROT>
3

>  <SCORE.INTER.SOLV>
24.1832

>  <SCORE.INTER.VDW>
-17.6143

>  <SCORE.INTER.norm>
-0.269542

>  <SCORE.INTRA>
-2.02617

>  <SCORE.INTRA.DIHEDRAL>
-2.96439

>  <SCORE.INTRA.DIHEDRAL.0>
7.18044

>  <SCORE.INTRA.POLAR>
0

>  <SCORE.INTRA.POLAR.0>
0

>  <SCORE.INTRA.REPUL>
0

>  <SCORE.INTRA.REPUL.0>
0

>  <SCORE.INTRA.SOLV>
-1.35432

>  <SCORE.INTRA.SOLV.lig_0>
-72.0615

>  <SCORE.INTRA.VDW>
0.133183

>  <SCORE.INTRA.VDW.0>
-1.54792

>  <SCORE.INTRA.norm>
-0.0920987

>  <SCORE.RESTR>
0

>  <SCORE.RESTR.CAVITY>
0

>  <SCORE.RESTR.norm>
0

>  <SCORE.SYSTEM>
0

>  <SCORE.SYSTEM.CONST>
0

>  <SCORE.SYSTEM.DIHEDRAL>
0

>  <SCORE.SYSTEM.SOLV>
0

>  <SCORE.SYSTEM.norm>
0

>  <SCORE.heavy>
22

>  <SCORE.norm>
-0.361641

>  <RMSD>
1.378

$$$$
lig.pdb
 OpenBabel11021811523D
libRbt.so/2013.1/901 2013/11/27
 22 23  0  0  0  0  0  0  0  0999 V2000
   16.7283   -9.7309   25.3674 C   0  0  1  0  0  0  0  0  0  0  0  0
   18.5929   -8.4930   26.4808 C   0  0  1  0  0  0  0  0  0  0  0  0
   17.9396   -6.9924   26.5839 C   0  0  1  0  0  0  0  0  0  0  0  0
   19.1547   -5.9428   26.7140 C   0  0  2  0  0  0  0  0  0  0  0  0
   15.3882  -10.5386   25.6768 C   0  0  1  0  0  0  0  0  0  0  0  0
   15.7091  -12.0595   25.9512 C   0  0  2  0  0  0  0  0  0  0  0  0
   16.3733  -12.6831   24.6274 C   0  0  1  0  0  0  0  0  0  0  0  0
   17.7789  -11.9440   24.3070 C   0  0  1  0  0  0  0  0  0  0  0  0
   18.5007  -12.4919   23.0447 C   0  0  0  0  0  0  0  0  0  0  0  0
   19.9308   -6.2668   28.0832 C   0  0  1  0  0  0  0  0  0  0  0  0
   20.5447   -7.7514   27.9510 C   0  0  0  0  0  0  0  0  0  0  0  0
   19.3859   -8.8217   27.7684 C   0  0  2  0  0  0  0  0  0  0  0  0
   16.6839  -14.1070   24.7937 F   0  0  0  0  0  0  0  0  0  0  0  0
   14.7479   -9.8333   26.8819 N   0  0  0  0  0  0  0  0  0  0  0  0
   18.9521  -13.8299   23.1626 N   0  0  0  0  0  0  0  0  0  0  0  0
   21.0865   -5.3318   28.2610 N   0  0  0  0  0  0  0  0  0  0  0  0
   19.9296  -10.1696   27.6311 N   0  0  0  0  0  0  0  0  0  0  0  0
   17.6138   -9.5032   26.3905 O   0  0  0  0  0  0  0  0  0  0  0  0
   17.1950   -6.7216   25.3157 O   0  0  0  0  0  0  0  0  0  0  0  0
   18.6100   -4.6697   26.8039 O   0  0  0  0  0  0  0  0  0  0  0  0
   14.6890  -12.6056   26.1666 O   0  0  0  0  0  0  0  0  0  0  0  0
   17.4609  -10.4087   24.1650 O   0  0  0  0  0  0  0  0  0  0  0  0
  1  5  1  0  0  0  0
  1 18  1  1  0  0  0
  2 18  1  1  0  0  0
  2  3  1  0  0  0  0
  2 12  1  0  0  0  0
  3 19  1  6  0  0  0
  3  4  1  0  0  0  0
  4 20  1  1  0  0  0
  4 10  1  0  0  0  0
  5  6  1  0  0  0  0
  5 14  1  1  0  0  0
  6 21  1  6  0  0  0
  7 13  1  1  0  0  0
  7  6  1  0  0  0  0
  8  9  1  6  0  0  0
  8  7  1  0  0  0  0
 10 16  1  6  0  0  0
 11 10  1  0  0  0  0
 12 17  1  6  0  0  0
 12 11  1  0  0  0  0
 15  9  1  0  0  0  0
 22  8  1  0  0  0  0
 22  1  1  0  0  0  0
M  END
>  <CHROM.1>
-157.35911188,66.20297727,-66.12527618,17.82621611,-9.64024330,25.97414501
1.94367162,-0.03518880,-2.73436057

>  <Name>
lig.pdb

>  <RI>
0

>  <Rbt.Current_Directory>
/home/itssahil/PROJECTS/Mol_Feturizer/New_Systems/rnas/5bxk

>  <Rbt.Executable>
rbdock ($Id: //depot/dev/client3/rdock/2013.1/src/exe/rbdock.cxx#4 $)

>  <Rbt.Library>
libRbt.so (2013.1, Build901 2013/11/27)

>  <Rbt.Parameter_File>
/export/apps/rDock/src/rDock_2013.1_src/data/scripts/dock_solv.prm

>  <Rbt.Receptor>
prm/pocket_docking_3.prm

>  <SCORE>
-9.39364

>  <SCORE.INTER>
-6.92812

>  <SCORE.INTER.CONST>
1

>  <SCORE.INTER.POLAR>
0

>  <SCORE.INTER.ROT>
3

>  <SCORE.INTER.SOLV>
20.1236

>  <SCORE.INTER.VDW>
-16.9266

>  <SCORE.INTER.norm>
-0.314915

>  <SCORE.INTRA>
-2.46552

>  <SCORE.INTRA.DIHEDRAL>
-4.56045

>  <SCORE.INTRA.DIHEDRAL.0>
7.18044

>  <SCORE.INTRA.POLAR>
0

>  <SCORE.INTRA.POLAR.0>
0

>  <SCORE.INTRA.REPUL>
0

>  <SCORE.INTRA.REPUL.0>
0

>  <SCORE.INTRA.SOLV>
-0.532267

>  <SCORE.INTRA.SOLV.lig_0>
-72.0615

>  <SCORE.INTRA.VDW>
0.08084

>  <SCORE.INTRA.VDW.0>
-1.54792

>  <SCORE.INTRA.norm>
-0.112069

>  <SCORE.RESTR>
0

>  <SCORE.RESTR.CAVITY>
0

>  <SCORE.RESTR.norm>
0

>  <SCORE.SYSTEM>
0

>  <SCORE.SYSTEM.CONST>
0

>  <SCORE.SYSTEM.DIHEDRAL>
0

>  <SCORE.SYSTEM.SOLV>
0

>  <SCORE.SYSTEM.norm>
0

>  <SCORE.heavy>
22

>  <SCORE.norm>
-0.426984

>  <RMSD>
1.396

$$$$
lig.pdb
 OpenBabel11021811523D
libRbt.so/2013.1/901 2013/11/27
 22 23  0  0  0  0  0  0  0  0999 V2000
   16.6820   -9.7130   25.3598 C   0  0  1  0  0  0  0  0  0  0  0  0
   18.5668   -8.5012   26.4677 C   0  0  1  0  0  0  0  0  0  0  0  0
   17.9270   -6.9945   26.5676 C   0  0  1  0  0  0  0  0  0  0  0  0
   19.1513   -5.9558   26.6988 C   0  0  2  0  0  0  0  0  0  0  0  0
   15.3433  -10.5222   25.6713 C   0  0  1  0  0  0  0  0  0  0  0  0
   15.6634  -12.0477   25.9198 C   0  0  2  0  0  0  0  0  0  0  0  0
   16.3122  -12.6532   24.5801 C   0  0  1  0  0  0  0  0  0  0  0  0
   17.7162  -11.9126   24.2558 C   0  0  1  0  0  0  0  0  0  0  0  0
   18.4234  -12.4433   22.9781 C   0  0  0  0  0  0  0  0  0  0  0  0
   19.9217   -6.2851   28.0700 C   0  0  1  0  0  0  0  0  0  0  0  0
   20.5223   -7.7754   27.9410 C   0  0  0  0  0  0  0  0  0  0  0  0
   19.3541   -8.8354   27.7573 C   0  0  2  0  0  0  0  0  0  0  0  0
   16.6211  -14.0801   24.7220 F   0  0  0  0  0  0  0  0  0  0  0  0
   14.7173   -9.8334   26.8934 N   0  0  0  0  0  0  0  0  0  0  0  0
   18.8411  -13.7951   23.0585 N   0  0  0  0  0  0  0  0  0  0  0  0
   21.0855   -5.3605   28.2489 N   0  0  0  0  0  0  0  0  0  0  0  0
   19.8858  -10.1884   27.6230 N   0  0  0  0  0  0  0  0  0  0  0  0
   17.5787   -9.5025   26.3767 O   0  0  0  0  0  0  0  0  0  0  0  0
   17.1875   -6.7187   25.2974 O   0  0  0  0  0  0  0  0  0  0  0  0
   18.6181   -4.6777   26.7858 O   0  0  0  0  0  0  0  0  0  0  0  0
   14.6443  -12.5947   26.1378 O   0  0  0  0  0  0  0  0  0  0  0  0
   17.4003  -10.3747   24.1399 O   0  0  0  0  0  0  0  0  0  0  0  0
  1  5  1  0  0  0  0
  1 18  1  1  0  0  0
  2 18  1  1  0  0  0
  2  3  1  0  0  0  0
  2 12  1  0  0  0  0
  3 19  1  6  0  0  0
  3  4  1  0  0  0  0
  4 20  1  1  0  0  0
  4 10  1  0  0  0  0
  5  6  1  0  0  0  0
  5 14  1  1  0  0  0
  6 21  1  6  0  0  0
  7 13  1  1  0  0  0
  7  6  1  0  0  0  0
  8  9  1  6  0  0  0
  8  7  1  0  0  0  0
 10 16  1  6  0  0  0
 11 10  1  0  0  0  0
 12 17  1  6  0  0  0
 12 11  1  0  0  0  0
 15  9  1  0  0  0  0
 22  8  1  0  0  0  0
 22  1  1  0  0  0  0
M  END
>  <CHROM.1>
-157.80438037,65.29596820,-64.52859108,17.78820934,-9.63385174,25.94720003
1.95286841,-0.04770565,-2.72109756

>  <Name>
lig.pdb

>  <RI>
0

>  <Rbt.Current_Directory>
/home/itssahil/PROJECTS/Mol_Feturizer/New_Systems/rnas/5bxk

>  <Rbt.Executable>
rbdock ($Id: //depot/dev/client3/rdock/2013.1/src/exe/rbdock.cxx#4 $)

>  <Rbt.Library>
libRbt.so (2013.1, Build901 2013/11/27)

>  <Rbt.Parameter_File>
/export/apps/rDock/src/rDock_2013.1_src/data/scripts/dock_solv.prm

>  <Rbt.Receptor>
prm/pocket_docking_3.prm

>  <SCORE>
-9.37074

>  <SCORE.INTER>
-6.81703

>  <SCORE.INTER.CONST>
1

>  <SCORE.INTER.POLAR>
0

>  <SCORE.INTER.ROT>
3

>  <SCORE.INTER.SOLV>
20.4257

>  <SCORE.INTER.VDW>
-16.9533

>  <SCORE.INTER.norm>
-0.309865

>  <SCORE.INTRA>
-2.5537

>  <SCORE.INTRA.DIHEDRAL>
-4.74606

>  <SCORE.INTRA.DIHEDRAL.0>
7.18044

>  <SCORE.INTRA.POLAR>
0

>  <SCORE.INTRA.POLAR.0>
0

>  <SCORE.INTRA.REPUL>
0

>  <SCORE.INTRA.REPUL.0>
0

>  <SCORE.INTRA.SOLV>
-0.565491

>  <SCORE.INTRA.SOLV.lig_0>
-72.0615

>  <SCORE.INTRA.VDW>
0.102075

>  <SCORE.INTRA.VDW.0>
-1.54792

>  <SCORE.INTRA.norm>
-0.116077

>  <SCORE.RESTR>
0

>  <SCORE.RESTR.CAVITY>
0

>  <SCORE.RESTR.norm>
0

>  <SCORE.SYSTEM>
0

>  <SCORE.SYSTEM.CONST>
0

>  <SCORE.SYSTEM.DIHEDRAL>
0

>  <SCORE.SYSTEM.SOLV>
0

>  <SCORE.SYSTEM.norm>
0

>  <SCORE.heavy>
22

>  <SCORE.norm>
-0.425943

>  <RMSD>
1.399

$$$$
lig.pdb
 OpenBabel11021811523D
libRbt.so/2013.1/901 2013/11/27
 22 23  0  0  0  0  0  0  0  0999 V2000
   16.6683   -9.7286   25.3585 C   0  0  1  0  0  0  0  0  0  0  0  0
   18.5648   -8.5286   26.4593 C   0  0  1  0  0  0  0  0  0  0  0  0
   17.9271   -7.0206   26.5528 C   0  0  1  0  0  0  0  0  0  0  0  0
   19.1526   -5.9835   26.6846 C   0  0  2  0  0  0  0  0  0  0  0  0
   15.3232  -10.5231   25.6804 C   0  0  1  0  0  0  0  0  0  0  0  0
   15.6284  -12.0522   25.9256 C   0  0  2  0  0  0  0  0  0  0  0  0
   16.2596  -12.6641   24.5805 C   0  0  1  0  0  0  0  0  0  0  0  0
   17.6691  -11.9390   24.2453 C   0  0  1  0  0  0  0  0  0  0  0  0
   18.3602  -12.4768   22.9617 C   0  0  0  0  0  0  0  0  0  0  0  0
   19.9184   -6.3099   28.0590 C   0  0  1  0  0  0  0  0  0  0  0  0
   20.5170   -7.8015   27.9362 C   0  0  0  0  0  0  0  0  0  0  0  0
   19.3477   -8.8602   27.7523 C   0  0  2  0  0  0  0  0  0  0  0  0
   16.5539  -14.0944   24.7193 F   0  0  0  0  0  0  0  0  0  0  0  0
   14.7147   -9.8281   26.9077 N   0  0  0  0  0  0  0  0  0  0  0  0
   18.8060  -13.8187   23.0550 N   0  0  0  0  0  0  0  0  0  0  0  0
   21.0831   -5.3865   28.2387 N   0  0  0  0  0  0  0  0  0  0  0  0
   19.8777  -10.2144   27.6235 N   0  0  0  0  0  0  0  0  0  0  0  0
   17.5754   -9.5286   26.3684 O   0  0  0  0  0  0  0  0  0  0  0  0
   17.1917   -6.7474   25.2796 O   0  0  0  0  0  0  0  0  0  0  0  0
   18.6212   -4.7043   26.7663 O   0  0  0  0  0  0  0  0  0  0  0  0
   14.6050  -12.5879   26.1516 O   0  0  0  0  0  0  0  0  0  0  0  0
   17.3694  -10.3975   24.1326 O   0  0  0  0  0  0  0  0  0  0  0  0
  1  5  1  0  0  0  0
  1 18  1  1  0  0  0
  2 18  1  1  0  0  0
  2  3  1  0  0  0  0
  2 12  1  0  0  0  0
  3 19  1  6  0  0  0
  3  4  1  0  0  0  0
  4 20  1  1  0  0  0
  4 10  1  0  0  0  0
  5  6  1  0  0  0  0
  5 14  1  1  0  0  0
  6 21  1  6  0  0  0
  7 13  1  1  0  0  0
  7  6  1  0  0  0  0
  8  9  1  6  0  0  0
  8  7  1  0  0  0  0
 10 16  1  6  0  0  0
 11 10  1  0  0  0  0
 12 17  1  6  0  0  0
 12 11  1  0  0  0  0
 15  9  1  0  0  0  0
 22  8  1  0  0  0  0
 22  1  1  0  0  0  0
M  END
>  <CHROM.1>
-156.97391628,64.23484671,-66.65362008,17.76809172,-9.65336348,25.94207814
1.95936389,-0.05011656,-2.71984124

>  <Name>
lig.pdb

>  <RI>
0

>  <Rbt.Current_Directory>
/home/itssahil/PROJECTS/Mol_Feturizer/New_Systems/rnas/5bxk

>  <Rbt.Executable>
rbdock ($Id: //depot/dev/client3/rdock/2013.1/src/exe/rbdock.cxx#4 $)

>  <Rbt.Library>
libRbt.so (2013.1, Build901 2013/11/27)

>  <Rbt.Parameter_File>
/export/apps/rDock/src/rDock_2013.1_src/data/scripts/dock_solv.prm

>  <Rbt.Receptor>
prm/pocket_docking_4.prm

>  <SCORE>
-9.32124

>  <SCORE.INTER>
-6.8329

>  <SCORE.INTER.CONST>
1

>  <SCORE.INTER.POLAR>
0

>  <SCORE.INTER.ROT>
3

>  <SCORE.INTER.SOLV>
20.5192

>  <SCORE.INTER.VDW>
-16.995

>  <SCORE.INTER.norm>
-0.310587

>  <SCORE.INTRA>
-2.48834

>  <SCORE.INTRA.DIHEDRAL>
-4.57163

>  <SCORE.INTRA.DIHEDRAL.0>
7.18044

>  <SCORE.INTRA.POLAR>
0

>  <SCORE.INTRA.POLAR.0>
0

>  <SCORE.INTRA.REPUL>
0

>  <SCORE.INTRA.REPUL.0>
0

>  <SCORE.INTRA.SOLV>
-0.604717

>  <SCORE.INTRA.SOLV.lig_0>
-72.0615

>  <SCORE.INTRA.VDW>
0.0998308

>  <SCORE.INTRA.VDW.0>
-1.54792

>  <SCORE.INTRA.norm>
-0.113106

>  <SCORE.RESTR>
0

>  <SCORE.RESTR.CAVITY>
0

>  <SCORE.RESTR.norm>
0

>  <SCORE.SYSTEM>
0

>  <SCORE.SYSTEM.CONST>
0

>  <SCORE.SYSTEM.DIHEDRAL>
0

>  <SCORE.SYSTEM.SOLV>
0

>  <SCORE.SYSTEM.norm>
0

>  <SCORE.heavy>
22

>  <SCORE.norm>
-0.423693

>  <RMSD>
1.402

$$$$
lig.pdb
 OpenBabel11021811523D
libRbt.so/2013.1/901 2013/11/27
 22 23  0  0  0  0  0  0  0  0999 V2000
   16.6811   -9.7123   25.3602 C   0  0  1  0  0  0  0  0  0  0  0  0
   18.5641   -8.4972   26.4677 C   0  0  1  0  0  0  0  0  0  0  0  0
   17.9219   -6.9925   26.5800 C   0  0  1  0  0  0  0  0  0  0  0  0
   19.1449   -5.9520   26.7096 C   0  0  2  0  0  0  0  0  0  0  0  0
   15.3485  -10.5324   25.6695 C   0  0  1  0  0  0  0  0  0  0  0  0
   15.6798  -12.0567   25.9106 C   0  0  2  0  0  0  0  0  0  0  0  0
   16.3312  -12.6514   24.5674 C   0  0  1  0  0  0  0  0  0  0  0  0
   17.7296  -11.8994   24.2449 C   0  0  1  0  0  0  0  0  0  0  0  0
   18.4390  -12.4192   22.9639 C   0  0  0  0  0  0  0  0  0  0  0  0
   19.9242   -6.2875   28.0743 C   0  0  1  0  0  0  0  0  0  0  0  0
   20.5271   -7.7758   27.9332 C   0  0  0  0  0  0  0  0  0  0  0  0
   19.3600   -8.8371   27.7506 C   0  0  2  0  0  0  0  0  0  0  0  0
   16.6505  -14.0767   24.7024 F   0  0  0  0  0  0  0  0  0  0  0  0
   14.7192   -9.8536   26.8954 N   0  0  0  0  0  0  0  0  0  0  0  0
   18.8945  -13.7584   23.0492 N   0  0  0  0  0  0  0  0  0  0  0  0
   21.0872   -5.3615   28.2514 N   0  0  0  0  0  0  0  0  0  0  0  0
   19.8935  -10.1882   27.6054 N   0  0  0  0  0  0  0  0  0  0  0  0
   17.5775   -9.5001   26.3771 O   0  0  0  0  0  0  0  0  0  0  0  0
   17.1741   -6.7110   25.3159 O   0  0  0  0  0  0  0  0  0  0  0  0
   18.6096   -4.6756   26.8072 O   0  0  0  0  0  0  0  0  0  0  0  0
   14.6648  -12.6119   26.1273 O   0  0  0  0  0  0  0  0  0  0  0  0
   17.4027  -10.3632   24.1364 O   0  0  0  0  0  0  0  0  0  0  0  0
  1  5  1  0  0  0  0
  1 18  1  1  0  0  0
  2 18  1  1  0  0  0
  2  3  1  0  0  0  0
  2 12  1  0  0  0  0
  3 19  1  6  0  0  0
  3  4  1  0  0  0  0
  4 20  1  1  0  0  0
  4 10  1  0  0  0  0
  5  6  1  0  0  0  0
  5 14  1  1  0  0  0
  6 21  1  6  0  0  0
  7 13  1  1  0  0  0
  7  6  1  0  0  0  0
  8  9  1  6  0  0  0
  8  7  1  0  0  0  0
 10 16  1  6  0  0  0
 11 10  1  0  0  0  0
 12 17  1  6  0  0  0
 12 11  1  0  0  0  0
 15  9  1  0  0  0  0
 22  8  1  0  0  0  0
 22  1  1  0  0  0  0
M  END
>  <CHROM.1>
-158.23760739,65.78630367,-65.94625374,17.79573710,-9.63144920,25.94480652
1.95020726,-0.05190401,-2.71745083

>  <Name>
lig.pdb

>  <RI>
0

>  <Rbt.Current_Directory>
/home/itssahil/PROJECTS/Mol_Feturizer/New_Systems/rnas/5bxk

>  <Rbt.Executable>
rbdock ($Id: //depot/dev/client3/rdock/2013.1/src/exe/rbdock.cxx#4 $)

>  <Rbt.Library>
libRbt.so (2013.1, Build901 2013/11/27)

>  <Rbt.Parameter_File>
/export/apps/rDock/src/rDock_2013.1_src/data/scripts/dock_solv.prm

>  <Rbt.Receptor>
prm/pocket_docking_4.prm

>  <SCORE>
-9.39515

>  <SCORE.INTER>
-6.82188

>  <SCORE.INTER.CONST>
1

>  <SCORE.INTER.POLAR>
0

>  <SCORE.INTER.ROT>
3

>  <SCORE.INTER.SOLV>
20.4307

>  <SCORE.INTER.VDW>
-16.9581

>  <SCORE.INTER.norm>
-0.310085

>  <SCORE.INTRA>
-2.57327

>  <SCORE.INTRA.DIHEDRAL>
-4.73865

>  <SCORE.INTRA.DIHEDRAL.0>
7.18044

>  <SCORE.INTRA.POLAR>
0

>  <SCORE.INTRA.POLAR.0>
0

>  <SCORE.INTRA.REPUL>
0

>  <SCORE.INTRA.REPUL.0>
0

>  <SCORE.INTRA.SOLV>
-0.583212

>  <SCORE.INTRA.SOLV.lig_0>
-72.0615

>  <SCORE.INTRA.VDW>
0.0876611

>  <SCORE.INTRA.VDW.0>
-1.54792

>  <SCORE.INTRA.norm>
-0.116967

>  <SCORE.RESTR>
0

>  <SCORE.RESTR.CAVITY>
0

>  <SCORE.RESTR.norm>
0

>  <SCORE.SYSTEM>
0

>  <SCORE.SYSTEM.CONST>
0

>  <SCORE.SYSTEM.DIHEDRAL>
0

>  <SCORE.SYSTEM.SOLV>
0

>  <SCORE.SYSTEM.norm>
0

>  <SCORE.heavy>
22

>  <SCORE.norm>
-0.427052

>  <RMSD>
1.403

$$$$
lig.pdb
 OpenBabel11021811523D
libRbt.so/2013.1/901 2013/11/27
 22 23  0  0  0  0  0  0  0  0999 V2000
   16.6936   -9.7116   25.3533 C   0  0  1  0  0  0  0  0  0  0  0  0
   18.5682   -8.4838   26.4610 C   0  0  1  0  0  0  0  0  0  0  0  0
   17.9197   -6.9814   26.5693 C   0  0  1  0  0  0  0  0  0  0  0  0
   19.1384   -5.9357   26.6973 C   0  0  2  0  0  0  0  0  0  0  0  0
   15.3614  -10.5321   25.6632 C   0  0  1  0  0  0  0  0  0  0  0  0
   15.6946  -12.0541   25.9157 C   0  0  2  0  0  0  0  0  0  0  0  0
   16.3521  -12.6566   24.5789 C   0  0  1  0  0  0  0  0  0  0  0  0
   17.7502  -11.9041   24.2566 C   0  0  1  0  0  0  0  0  0  0  0  0
   18.4653  -12.4311   22.9817 C   0  0  0  0  0  0  0  0  0  0  0  0
   19.9182   -6.2646   28.0632 C   0  0  1  0  0  0  0  0  0  0  0  0
   20.5272   -7.7508   27.9260 C   0  0  0  0  0  0  0  0  0  0  0  0
   19.3646   -8.8174   27.7452 C   0  0  2  0  0  0  0  0  0  0  0  0
   16.6734  -14.0803   24.7246 F   0  0  0  0  0  0  0  0  0  0  0  0
   14.7263   -9.8463   26.8822 N   0  0  0  0  0  0  0  0  0  0  0  0
   18.9111  -13.7732   23.0727 N   0  0  0  0  0  0  0  0  0  0  0  0
   21.0772   -5.3334   28.2389 N   0  0  0  0  0  0  0  0  0  0  0  0
   19.9038  -10.1666   27.6036 N   0  0  0  0  0  0  0  0  0  0  0  0
   17.5859   -9.4909   26.3720 O   0  0  0  0  0  0  0  0  0  0  0  0
   17.1716   -6.7060   25.3041 O   0  0  0  0  0  0  0  0  0  0  0  0
   18.5978   -4.6612   26.7914 O   0  0  0  0  0  0  0  0  0  0  0  0
   14.6798  -12.6097   26.1324 O   0  0  0  0  0  0  0  0  0  0  0  0
   17.4209  -10.3693   24.1366 O   0  0  0  0  0  0  0  0  0  0  0  0
  1  5  1  0  0  0  0
  1 18  1  1  0  0  0
  2 18  1  1  0  0  0
  2  3  1  0  0  0  0
  2 12  1  0  0  0  0
  3 19  1  6  0  0  0
  3  4  1  0  0  0  0
  4 20  1  1  0  0  0
  4 10  1  0  0  0  0
  5  6  1  0  0  0  0
  5 14  1  1  0  0  0
  6 21  1  6  0  0  0
  7 13  1  1  0  0  0
  7  6  1  0  0  0  0
  8  9  1  6  0  0  0
  8  7  1  0  0  0  0
 10 16  1  6  0  0  0
 11 10  1  0  0  0  0
 12 17  1  6  0  0  0
 12 11  1  0  0  0  0
 15  9  1  0  0  0  0
 22  8  1  0  0  0  0
 22  1  1  0  0  0  0
M  END
>  <CHROM.1>
-158.07976089,65.99378356,-65.34795533,17.80392444,-9.62472585,25.94376264
1.94602706,-0.04820547,-2.72358483

>  <Name>
lig.pdb

>  <RI>
0

>  <Rbt.Current_Directory>
/home/itssahil/PROJECTS/Mol_Feturizer/New_Systems/rnas/5bxk

>  <Rbt.Executable>
rbdock ($Id: //depot/dev/client3/rdock/2013.1/src/exe/rbdock.cxx#4 $)

>  <Rbt.Library>
libRbt.so (2013.1, Build901 2013/11/27)

>  <Rbt.Parameter_File>
/export/apps/rDock/src/rDock_2013.1_src/data/scripts/dock_solv.prm

>  <Rbt.Receptor>
prm/pocket_docking_4.prm

>  <SCORE>
-9.40016

>  <SCORE.INTER>
-6.84693

>  <SCORE.INTER.CONST>
1

>  <SCORE.INTER.POLAR>
0

>  <SCORE.INTER.ROT>
3

>  <SCORE.INTER.SOLV>
20.3903

>  <SCORE.INTER.VDW>
-16.9614

>  <SCORE.INTER.norm>
-0.311224

>  <SCORE.INTRA>
-2.55324

>  <SCORE.INTRA.DIHEDRAL>
-4.72468

>  <SCORE.INTRA.DIHEDRAL.0>
7.18044

>  <SCORE.INTRA.POLAR>
0

>  <SCORE.INTRA.POLAR.0>
0

>  <SCORE.INTRA.REPUL>
0

>  <SCORE.INTRA.REPUL.0>
0

>  <SCORE.INTRA.SOLV>
-0.559714

>  <SCORE.INTRA.SOLV.lig_0>
-72.0615

>  <SCORE.INTRA.VDW>
0.0889609

>  <SCORE.INTRA.VDW.0>
-1.54792

>  <SCORE.INTRA.norm>
-0.116056

>  <SCORE.RESTR>
0

>  <SCORE.RESTR.CAVITY>
0

>  <SCORE.RESTR.norm>
0

>  <SCORE.SYSTEM>
0

>  <SCORE.SYSTEM.CONST>
0

>  <SCORE.SYSTEM.DIHEDRAL>
0

>  <SCORE.SYSTEM.SOLV>
0

>  <SCORE.SYSTEM.norm>
0

>  <SCORE.heavy>
22

>  <SCORE.norm>
-0.42728

>  <RMSD>
1.406

$$$$
lig.pdb
 OpenBabel11021811523D
libRbt.so/2013.1/901 2013/11/27
 22 23  0  0  0  0  0  0  0  0999 V2000
   16.6718   -9.7067   25.3620 C   0  0  1  0  0  0  0  0  0  0  0  0
   18.5458   -8.4807   26.4725 C   0  0  1  0  0  0  0  0  0  0  0  0
   17.9109   -6.9727   26.5820 C   0  0  1  0  0  0  0  0  0  0  0  0
   19.1391   -5.9375   26.7052 C   0  0  2  0  0  0  0  0  0  0  0  0
   15.3446  -10.5394   25.6611 C   0  0  1  0  0  0  0  0  0  0  0  0
   15.6894  -12.0587   25.9146 C   0  0  2  0  0  0  0  0  0  0  0  0
   16.3623  -12.6538   24.5821 C   0  0  1  0  0  0  0  0  0  0  0  0
   17.7560  -11.8886   24.2710 C   0  0  1  0  0  0  0  0  0  0  0  0
   18.4853  -12.4079   23.0010 C   0  0  0  0  0  0  0  0  0  0  0  0
   19.9207   -6.2725   28.0686 C   0  0  1  0  0  0  0  0  0  0  0  0
   20.5162   -7.7641   27.9303 C   0  0  0  0  0  0  0  0  0  0  0  0
   19.3437   -8.8205   27.7542 C   0  0  2  0  0  0  0  0  0  0  0  0
   16.6952  -14.0748   24.7288 F   0  0  0  0  0  0  0  0  0  0  0  0
   14.6943   -9.8606   26.8760 N   0  0  0  0  0  0  0  0  0  0  0  0
   18.9191  -13.7544   23.0841 N   0  0  0  0  0  0  0  0  0  0  0  0
   21.0885   -5.3514   28.2397 N   0  0  0  0  0  0  0  0  0  0  0  0
   19.8705  -10.1745   27.6115 N   0  0  0  0  0  0  0  0  0  0  0  0
   17.5543   -9.4792   26.3876 O   0  0  0  0  0  0  0  0  0  0  0  0
   17.1609   -6.6914   25.3192 O   0  0  0  0  0  0  0  0  0  0  0  0
   18.6101   -4.6583   26.8004 O   0  0  0  0  0  0  0  0  0  0  0  0
   14.6781  -12.6235   26.1231 O   0  0  0  0  0  0  0  0  0  0  0  0
   17.4139  -10.3567   24.1501 O   0  0  0  0  0  0  0  0  0  0  0  0
  1  5  1  0  0  0  0
  1 18  1  1  0  0  0
  2 18  1  1  0  0  0
  2  3  1  0  0  0  0
  2 12  1  0  0  0  0
  3 19  1  6  0  0  0
  3  4  1  0  0  0  0
  4 20  1  1  0  0  0
  4 10  1  0  0  0  0
  5  6  1  0  0  0  0
  5 14  1  1  0  0  0
  6 21  1  6  0  0  0
  7 13  1  1  0  0  0
  7  6  1  0  0  0  0
  8  9  1  6  0  0  0
  8  7  1  0  0  0  0
 10 16  1  6  0  0  0
 11 10  1  0  0  0  0
 12 17  1  6  0  0  0
 12 11  1  0  0  0  0
 15  9  1  0  0  0  0
 22  8  1  0  0  0  0
 22  1  1  0  0  0  0
M  END
>  <CHROM.1>
-159.54169984,67.20968536,-64.16246305,17.79843498,-9.62306383,25.95082533
1.94640696,-0.04726589,-2.72440674

>  <Name>
lig.pdb

>  <RI>
0

>  <Rbt.Current_Directory>
/home/itssahil/PROJECTS/Mol_Feturizer/New_Systems/rnas/5bxk

>  <Rbt.Executable>
rbdock ($Id: //depot/dev/client3/rdock/2013.1/src/exe/rbdock.cxx#4 $)

>  <Rbt.Library>
libRbt.so (2013.1, Build901 2013/11/27)

>  <Rbt.Parameter_File>
/export/apps/rDock/src/rDock_2013.1_src/data/scripts/dock_solv.prm

>  <Rbt.Receptor>
prm/pocket_docking_3.prm

>  <SCORE>
-9.43762

>  <SCORE.INTER>
-6.78385

>  <SCORE.INTER.CONST>
1

>  <SCORE.INTER.POLAR>
0

>  <SCORE.INTER.ROT>
3

>  <SCORE.INTER.SOLV>
20.3993

>  <SCORE.INTER.VDW>
-16.9223

>  <SCORE.INTER.norm>
-0.308357

>  <SCORE.INTRA>
-2.65377

>  <SCORE.INTRA.DIHEDRAL>
-4.92465

>  <SCORE.INTRA.DIHEDRAL.0>
7.18044

>  <SCORE.INTRA.POLAR>
0

>  <SCORE.INTRA.POLAR.0>
0

>  <SCORE.INTRA.REPUL>
0

>  <SCORE.INTRA.REPUL.0>
0

>  <SCORE.INTRA.SOLV>
-0.553309

>  <SCORE.INTRA.SOLV.lig_0>
-72.0615

>  <SCORE.INTRA.VDW>
0.0852146

>  <SCORE.INTRA.VDW.0>
-1.54792

>  <SCORE.INTRA.norm>
-0.120626

>  <SCORE.RESTR>
0

>  <SCORE.RESTR.CAVITY>
0

>  <SCORE.RESTR.norm>
0

>  <SCORE.SYSTEM>
0

>  <SCORE.SYSTEM.CONST>
0

>  <SCORE.SYSTEM.DIHEDRAL>
0

>  <SCORE.SYSTEM.SOLV>
0

>  <SCORE.SYSTEM.norm>
0

>  <SCORE.heavy>
22

>  <SCORE.norm>
-0.428983

>  <RMSD>
1.407

$$$$
lig.pdb
 OpenBabel11021811523D
libRbt.so/2013.1/901 2013/11/27
 22 23  0  0  0  0  0  0  0  0999 V2000
   16.4962   -9.6089   25.3222 C   0  0  1  0  0  0  0  0  0  0  0  0
   18.3778   -8.3581   26.3915 C   0  0  1  0  0  0  0  0  0  0  0  0
   17.7403   -6.8526   26.5201 C   0  0  1  0  0  0  0  0  0  0  0  0
   18.9674   -5.8126   26.6084 C   0  0  2  0  0  0  0  0  0  0  0  0
   15.1747  -10.4400   25.6494 C   0  0  1  0  0  0  0  0  0  0  0  0
   15.5268  -11.9534   25.9265 C   0  0  2  0  0  0  0  0  0  0  0  0
   16.1881  -12.5704   24.5982 C   0  0  1  0  0  0  0  0  0  0  0  0
   17.5763  -11.8068   24.2595 C   0  0  1  0  0  0  0  0  0  0  0  0
   18.2945  -12.3466   22.9917 C   0  0  0  0  0  0  0  0  0  0  0  0
   19.7892   -6.1450   27.9486 C   0  0  1  0  0  0  0  0  0  0  0  0
   20.3864   -7.6341   27.7925 C   0  0  0  0  0  0  0  0  0  0  0  0
   19.2135   -8.6952   27.6496 C   0  0  2  0  0  0  0  0  0  0  0  0
   16.5269  -13.9875   24.7669 F   0  0  0  0  0  0  0  0  0  0  0  0
   14.5344   -9.7415   26.8585 N   0  0  0  0  0  0  0  0  0  0  0  0
   18.7504  -13.6838   23.1015 N   0  0  0  0  0  0  0  0  0  0  0  0
   20.9578   -5.2194   28.0866 N   0  0  0  0  0  0  0  0  0  0  0  0
   19.7414  -10.0470   27.4912 N   0  0  0  0  0  0  0  0  0  0  0  0
   17.3883   -9.3605   26.3347 O   0  0  0  0  0  0  0  0  0  0  0  0
   16.9532   -6.5739   25.2795 O   0  0  0  0  0  0  0  0  0  0  0  0
   18.4363   -4.5356   26.7194 O   0  0  0  0  0  0  0  0  0  0  0  0
   14.5193  -12.5174   26.1552 O   0  0  0  0  0  0  0  0  0  0  0  0
   17.2283  -10.2782   24.1147 O   0  0  0  0  0  0  0  0  0  0  0  0
  1  5  1  0  0  0  0
  1 18  1  1  0  0  0
  2 18  1  1  0  0  0
  2  3  1  0  0  0  0
  2 12  1  0  0  0  0
  3 19  1  6  0  0  0
  3  4  1  0  0  0  0
  4 20  1  1  0  0  0
  4 10  1  0  0  0  0
  5  6  1  0  0  0  0
  5 14  1  1  0  0  0
  6 21  1  6  0  0  0
  7 13  1  1  0  0  0
  7  6  1  0  0  0  0
  8  9  1  6  0  0  0
  8  7  1  0  0  0  0
 10 16  1  6  0  0  0
 11 10  1  0  0  0  0
 12 17  1  6  0  0  0
 12 11  1  0  0  0  0
 15  9  1  0  0  0  0
 22  8  1  0  0  0  0
 22  1  1  0  0  0  0
M  END
>  <CHROM.1>
-159.56934287,68.72856744,-65.03273977,17.63410053,-9.51612770,25.90454198
1.94872154,-0.05462886,-2.74031607

>  <Name>
lig.pdb

>  <RI>
0

>  <Rbt.Current_Directory>
/home/itssahil/PROJECTS/Mol_Feturizer/New_Systems/rnas/5bxk

>  <Rbt.Executable>
rbdock ($Id: //depot/dev/client3/rdock/2013.1/src/exe/rbdock.cxx#4 $)

>  <Rbt.Library>
libRbt.so (2013.1, Build901 2013/11/27)

>  <Rbt.Parameter_File>
/export/apps/rDock/src/rDock_2013.1_src/data/scripts/dock_solv.prm

>  <Rbt.Receptor>
prm/pocket_docking_3.prm

>  <SCORE>
-9.35694

>  <SCORE.INTER>
-6.77558

>  <SCORE.INTER.CONST>
1

>  <SCORE.INTER.POLAR>
0

>  <SCORE.INTER.ROT>
3

>  <SCORE.INTER.SOLV>
20.7235

>  <SCORE.INTER.VDW>
-17.0249

>  <SCORE.INTER.norm>
-0.307981

>  <SCORE.INTRA>
-2.58136

>  <SCORE.INTRA.DIHEDRAL>
-4.78457

>  <SCORE.INTRA.DIHEDRAL.0>
7.18044

>  <SCORE.INTRA.POLAR>
0

>  <SCORE.INTRA.POLAR.0>
0

>  <SCORE.INTRA.REPUL>
0

>  <SCORE.INTRA.REPUL.0>
0

>  <SCORE.INTRA.SOLV>
-0.504347

>  <SCORE.INTRA.SOLV.lig_0>
-72.0615

>  <SCORE.INTRA.VDW>
0.0630935

>  <SCORE.INTRA.VDW.0>
-1.54792

>  <SCORE.INTRA.norm>
-0.117335

>  <SCORE.RESTR>
0

>  <SCORE.RESTR.CAVITY>
0

>  <SCORE.RESTR.norm>
0

>  <SCORE.SYSTEM>
0

>  <SCORE.SYSTEM.CONST>
0

>  <SCORE.SYSTEM.DIHEDRAL>
0

>  <SCORE.SYSTEM.SOLV>
0

>  <SCORE.SYSTEM.norm>
0

>  <SCORE.heavy>
22

>  <SCORE.norm>
-0.425315

>  <RMSD>
1.408

$$$$
lig.pdb
 OpenBabel11021811523D
libRbt.so/2013.1/901 2013/11/27
 22 23  0  0  0  0  0  0  0  0999 V2000
   16.5576   -9.7170   25.3771 C   0  0  1  0  0  0  0  0  0  0  0  0
   18.4264   -8.4661   26.4686 C   0  0  1  0  0  0  0  0  0  0  0  0
   17.7628   -6.9738   26.6165 C   0  0  1  0  0  0  0  0  0  0  0  0
   18.9715   -5.9150   26.7296 C   0  0  2  0  0  0  0  0  0  0  0  0
   15.2404  -10.5579   25.6963 C   0  0  1  0  0  0  0  0  0  0  0  0
   15.5985  -12.0750   25.9443 C   0  0  2  0  0  0  0  0  0  0  0  0
   16.2545  -12.6659   24.6016 C   0  0  1  0  0  0  0  0  0  0  0  0
   17.6385  -11.8920   24.2693 C   0  0  1  0  0  0  0  0  0  0  0  0
   18.3515  -12.4067   22.9883 C   0  0  0  0  0  0  0  0  0  0  0  0
   19.7899   -6.2548   28.0701 C   0  0  1  0  0  0  0  0  0  0  0  0
   20.4132   -7.7310   27.8946 C   0  0  0  0  0  0  0  0  0  0  0  0
   19.2593   -8.8092   27.7269 C   0  0  2  0  0  0  0  0  0  0  0  0
   16.5985  -14.0848   24.7431 F   0  0  0  0  0  0  0  0  0  0  0  0
   14.6045   -9.8832   26.9212 N   0  0  0  0  0  0  0  0  0  0  0  0
   18.8110  -13.7447   23.0711 N   0  0  0  0  0  0  0  0  0  0  0  0
   20.9418   -5.3120   28.2307 N   0  0  0  0  0  0  0  0  0  0  0  0
   19.8110  -10.1492   27.5508 N   0  0  0  0  0  0  0  0  0  0  0  0
   17.4543   -9.4840   26.3890 O   0  0  0  0  0  0  0  0  0  0  0  0
   16.9793   -6.6886   25.3750 O   0  0  0  0  0  0  0  0  0  0  0  0
   18.4182   -4.6489   26.8571 O   0  0  0  0  0  0  0  0  0  0  0  0
   14.5940  -12.6461   26.1682 O   0  0  0  0  0  0  0  0  0  0  0  0
   17.2851  -10.3622   24.1539 O   0  0  0  0  0  0  0  0  0  0  0  0
  1  5  1  0  0  0  0
  1 18  1  1  0  0  0
  2 18  1  1  0  0  0
  2  3  1  0  0  0  0
  2 12  1  0  0  0  0
  3 19  1  6  0  0  0
  3  4  1  0  0  0  0
  4 20  1  1  0  0  0
  4 10  1  0  0  0  0
  5  6  1  0  0  0  0
  5 14  1  1  0  0  0
  6 21  1  6  0  0  0
  7 13  1  1  0  0  0
  7  6  1  0  0  0  0
  8  9  1  6  0  0  0
  8  7  1  0  0  0  0
 10 16  1  6  0  0  0
 11 10  1  0  0  0  0
 12 17  1  6  0  0  0
 12 11  1  0  0  0  0
 15  9  1  0  0  0  0
 22  8  1  0  0  0  0
 22  1  1  0  0  0  0
M  END
>  <CHROM.1>
-158.42050641,67.47941672,-64.97751251,17.67959702,-9.62070285,25.96144196
1.93885020,-0.05954514,-2.72160487

>  <Name>
lig.pdb

>  <RI>
0

>  <Rbt.Current_Directory>
/home/itssahil/PROJECTS/Mol_Feturizer/New_Systems/rnas/5bxk

>  <Rbt.Executable>
rbdock ($Id: //depot/dev/client3/rdock/2013.1/src/exe/rbdock.cxx#4 $)

>  <Rbt.Library>
libRbt.so (2013.1, Build901 2013/11/27)

>  <Rbt.Parameter_File>
/export/apps/rDock/src/rDock_2013.1_src/data/scripts/dock_solv.prm

>  <Rbt.Receptor>
prm/pocket_docking_5.prm

>  <SCORE>
-9.30628

>  <SCORE.INTER>
-6.77908

>  <SCORE.INTER.CONST>
1

>  <SCORE.INTER.POLAR>
0

>  <SCORE.INTER.ROT>
3

>  <SCORE.INTER.SOLV>
20.1131

>  <SCORE.INTER.VDW>
-16.8238

>  <SCORE.INTER.norm>
-0.30814

>  <SCORE.INTRA>
-2.5272

>  <SCORE.INTRA.DIHEDRAL>
-4.69771

>  <SCORE.INTRA.DIHEDRAL.0>
7.18044

>  <SCORE.INTRA.POLAR>
0

>  <SCORE.INTRA.POLAR.0>
0

>  <SCORE.INTRA.REPUL>
0

>  <SCORE.INTRA.REPUL.0>
0

>  <SCORE.INTRA.SOLV>
-0.507552

>  <SCORE.INTRA.SOLV.lig_0>
-72.0615

>  <SCORE.INTRA.VDW>
0.0754323

>  <SCORE.INTRA.VDW.0>
-1.54792

>  <SCORE.INTRA.norm>
-0.114873

>  <SCORE.RESTR>
0

>  <SCORE.RESTR.CAVITY>
0

>  <SCORE.RESTR.norm>
0

>  <SCORE.SYSTEM>
0

>  <SCORE.SYSTEM.CONST>
0

>  <SCORE.SYSTEM.DIHEDRAL>
0

>  <SCORE.SYSTEM.SOLV>
0

>  <SCORE.SYSTEM.norm>
0

>  <SCORE.heavy>
22

>  <SCORE.norm>
-0.423013

>  <RMSD>
1.428

$$$$
lig.pdb
 OpenBabel11021811523D
libRbt.so/2013.1/901 2013/11/27
 22 23  0  0  0  0  0  0  0  0999 V2000
   16.6578   -9.7490   25.3423 C   0  0  1  0  0  0  0  0  0  0  0  0
   18.5208   -8.4991   26.4446 C   0  0  1  0  0  0  0  0  0  0  0  0
   17.8509   -7.0077   26.5723 C   0  0  1  0  0  0  0  0  0  0  0  0
   19.0549   -5.9447   26.6973 C   0  0  2  0  0  0  0  0  0  0  0  0
   15.3363  -10.5845   25.6579 C   0  0  1  0  0  0  0  0  0  0  0  0
   15.6873  -12.1032   25.9063 C   0  0  2  0  0  0  0  0  0  0  0  0
   16.3444  -12.6964   24.5651 C   0  0  1  0  0  0  0  0  0  0  0  0
   17.7325  -11.9282   24.2366 C   0  0  1  0  0  0  0  0  0  0  0  0
   18.4466  -12.4455   22.9572 C   0  0  0  0  0  0  0  0  0  0  0  0
   19.8532   -6.2735   28.0526 C   0  0  1  0  0  0  0  0  0  0  0  0
   20.4831   -7.7490   27.8965 C   0  0  0  0  0  0  0  0  0  0  0  0
   19.3349   -8.8315   27.7180 C   0  0  2  0  0  0  0  0  0  0  0  0
   16.6820  -14.1168   24.7069 F   0  0  0  0  0  0  0  0  0  0  0  0
   14.7001   -9.9076   26.8813 N   0  0  0  0  0  0  0  0  0  0  0  0
   18.9136  -13.7805   23.0463 N   0  0  0  0  0  0  0  0  0  0  0  0
   20.9998   -5.3263   28.2249 N   0  0  0  0  0  0  0  0  0  0  0  0
   19.8930  -10.1711   27.5593 N   0  0  0  0  0  0  0  0  0  0  0  0
   17.5529   -9.5202   26.3567 O   0  0  0  0  0  0  0  0  0  0  0  0
   17.0861   -6.7329   25.3170 O   0  0  0  0  0  0  0  0  0  0  0  0
   18.4961   -4.6794   26.8079 O   0  0  0  0  0  0  0  0  0  0  0  0
   14.6799  -12.6702   26.1274 O   0  0  0  0  0  0  0  0  0  0  0  0
   17.3858  -10.3970   24.1208 O   0  0  0  0  0  0  0  0  0  0  0  0
  1  5  1  0  0  0  0
  1 18  1  1  0  0  0
  2 18  1  1  0  0  0
  2  3  1  0  0  0  0
  2 12  1  0  0  0  0
  3 19  1  6  0  0  0
  3  4  1  0  0  0  0
  4 20  1  1  0  0  0
  4 10  1  0  0  0  0
  5  6  1  0  0  0  0
  5 14  1  1  0  0  0
  6 21  1  6  0  0  0
  7 13  1  1  0  0  0
  7  6  1  0  0  0  0
  8  9  1  6  0  0  0
  8  7  1  0  0  0  0
 10 16  1  6  0  0  0
 11 10  1  0  0  0  0
 12 17  1  6  0  0  0
 12 11  1  0  0  0  0
 15  9  1  0  0  0  0
 22  8  1  0  0  0  0
 22  1  1  0  0  0  0
M  END
>  <CHROM.1>
-157.78447564,66.30129385,-65.65400753,17.76746223,-9.65025221,25.93149184
1.93616779,-0.05570256,-2.72147792

>  <Name>
lig.pdb

>  <RI>
0

>  <Rbt.Current_Directory>
/home/itssahil/PROJECTS/Mol_Feturizer/New_Systems/rnas/5bxk

>  <Rbt.Executable>
rbdock ($Id: //depot/dev/client3/rdock/2013.1/src/exe/rbdock.cxx#4 $)

>  <Rbt.Library>
libRbt.so (2013.1, Build901 2013/11/27)

>  <Rbt.Parameter_File>
/export/apps/rDock/src/rDock_2013.1_src/data/scripts/dock_solv.prm

>  <Rbt.Receptor>
prm/pocket_docking_4.prm

>  <SCORE>
-9.35388

>  <SCORE.INTER>
-6.8448

>  <SCORE.INTER.CONST>
1

>  <SCORE.INTER.POLAR>
0

>  <SCORE.INTER.ROT>
3

>  <SCORE.INTER.SOLV>
20.3163

>  <SCORE.INTER.VDW>
-16.9353

>  <SCORE.INTER.norm>
-0.311127

>  <SCORE.INTRA>
-2.50907

>  <SCORE.INTRA.DIHEDRAL>
-4.64536

>  <SCORE.INTRA.DIHEDRAL.0>
7.18044

>  <SCORE.INTRA.POLAR>
0

>  <SCORE.INTRA.POLAR.0>
0

>  <SCORE.INTRA.REPUL>
0

>  <SCORE.INTRA.REPUL.0>
0

>  <SCORE.INTRA.SOLV>
-0.539185

>  <SCORE.INTRA.SOLV.lig_0>
-72.0615

>  <SCORE.INTRA.VDW>
0.0832025

>  <SCORE.INTRA.VDW.0>
-1.54792

>  <SCORE.INTRA.norm>
-0.114049

>  <SCORE.RESTR>
0

>  <SCORE.RESTR.CAVITY>
0

>  <SCORE.RESTR.norm>
0

>  <SCORE.SYSTEM>
0

>  <SCORE.SYSTEM.CONST>
0

>  <SCORE.SYSTEM.DIHEDRAL>
0

>  <SCORE.SYSTEM.SOLV>
0

>  <SCORE.SYSTEM.norm>
0

>  <SCORE.heavy>
22

>  <SCORE.norm>
-0.425176

>  <RMSD>
1.446

$$$$
lig.pdb
 OpenBabel11021811523D
libRbt.so/2013.1/901 2013/11/27
 22 23  0  0  0  0  0  0  0  0999 V2000
   16.5727   -9.7505   25.3359 C   0  0  1  0  0  0  0  0  0  0  0  0
   18.4754   -8.5179   26.3889 C   0  0  1  0  0  0  0  0  0  0  0  0
   17.8399   -7.0098   26.4951 C   0  0  1  0  0  0  0  0  0  0  0  0
   19.0683   -5.9713   26.5822 C   0  0  2  0  0  0  0  0  0  0  0  0
   15.2514  -10.5759   25.6779 C   0  0  1  0  0  0  0  0  0  0  0  0
   15.5976  -12.0946   25.9328 C   0  0  2  0  0  0  0  0  0  0  0  0
   16.2309  -12.7019   24.5865 C   0  0  1  0  0  0  0  0  0  0  0  0
   17.6181  -11.9443   24.2311 C   0  0  1  0  0  0  0  0  0  0  0  0
   18.3099  -12.4756   22.9452 C   0  0  0  0  0  0  0  0  0  0  0  0
   19.8780   -6.2903   27.9331 C   0  0  1  0  0  0  0  0  0  0  0  0
   20.4734   -7.7822   27.7988 C   0  0  0  0  0  0  0  0  0  0  0  0
   19.2996   -8.8425   27.6578 C   0  0  2  0  0  0  0  0  0  0  0  0
   16.5626  -14.1231   24.7343 F   0  0  0  0  0  0  0  0  0  0  0  0
   14.6376   -9.8858   26.9054 N   0  0  0  0  0  0  0  0  0  0  0  0
   18.7824  -13.8080   23.0421 N   0  0  0  0  0  0  0  0  0  0  0  0
   21.0472   -5.3654   28.0707 N   0  0  0  0  0  0  0  0  0  0  0  0
   19.8261  -10.1970   27.5190 N   0  0  0  0  0  0  0  0  0  0  0  0
   17.4843   -9.5190   26.3348 O   0  0  0  0  0  0  0  0  0  0  0  0
   17.0640   -6.7435   25.2448 O   0  0  0  0  0  0  0  0  0  0  0  0
   18.5388   -4.6920   26.6744 O   0  0  0  0  0  0  0  0  0  0  0  0
   14.5904  -12.6540   26.1735 O   0  0  0  0  0  0  0  0  0  0  0  0
   17.2784  -10.4120   24.1086 O   0  0  0  0  0  0  0  0  0  0  0  0
  1  5  1  0  0  0  0
  1 18  1  1  0  0  0
  2 18  1  1  0  0  0
  2  3  1  0  0  0  0
  2 12  1  0  0  0  0
  3 19  1  6  0  0  0
  3  4  1  0  0  0  0
  4 20  1  1  0  0  0
  4 10  1  0  0  0  0
  5  6  1  0  0  0  0
  5 14  1  1  0  0  0
  6 21  1  6  0  0  0
  7 13  1  1  0  0  0
  7  6  1  0  0  0  0
  8  9  1  6  0  0  0
  8  7  1  0  0  0  0
 10 16  1  6  0  0  0
 11 10  1  0  0  0  0
 12 17  1  6  0  0  0
 12 11  1  0  0  0  0
 15  9  1  0  0  0  0
 22  8  1  0  0  0  0
 22  1  1  0  0  0  0
M  END
>  <CHROM.1>
-159.06053528,66.47950123,-66.25083769,17.70915381,-9.66106693,25.89509659
1.95690435,-0.07126243,-2.73118924

>  <Name>
lig.pdb

>  <RI>
0

>  <Rbt.Current_Directory>
/home/itssahil/PROJECTS/Mol_Feturizer/New_Systems/rnas/5bxk

>  <Rbt.Executable>
rbdock ($Id: //depot/dev/client3/rdock/2013.1/src/exe/rbdock.cxx#4 $)

>  <Rbt.Library>
libRbt.so (2013.1, Build901 2013/11/27)

>  <Rbt.Parameter_File>
/export/apps/rDock/src/rDock_2013.1_src/data/scripts/dock_solv.prm

>  <Rbt.Receptor>
prm/pocket_docking_3.prm

>  <SCORE>
-9.37387

>  <SCORE.INTER>
-6.74707

>  <SCORE.INTER.CONST>
1

>  <SCORE.INTER.POLAR>
0

>  <SCORE.INTER.ROT>
3

>  <SCORE.INTER.SOLV>
21.1254

>  <SCORE.INTER.VDW>
-17.1398

>  <SCORE.INTER.norm>
-0.306685

>  <SCORE.INTRA>
-2.62681

>  <SCORE.INTRA.DIHEDRAL>
-4.81852

>  <SCORE.INTRA.DIHEDRAL.0>
7.18044

>  <SCORE.INTRA.POLAR>
0

>  <SCORE.INTRA.POLAR.0>
0

>  <SCORE.INTRA.REPUL>
0

>  <SCORE.INTRA.REPUL.0>
0

>  <SCORE.INTRA.SOLV>
-0.592949

>  <SCORE.INTRA.SOLV.lig_0>
-72.0615

>  <SCORE.INTRA.VDW>
0.0789297

>  <SCORE.INTRA.VDW.0>
-1.54792

>  <SCORE.INTRA.norm>
-0.1194

>  <SCORE.RESTR>
0

>  <SCORE.RESTR.CAVITY>
0

>  <SCORE.RESTR.norm>
0

>  <SCORE.SYSTEM>
0

>  <SCORE.SYSTEM.CONST>
0

>  <SCORE.SYSTEM.DIHEDRAL>
0

>  <SCORE.SYSTEM.SOLV>
0

>  <SCORE.SYSTEM.norm>
0

>  <SCORE.heavy>
22

>  <SCORE.norm>
-0.426085

>  <RMSD>
1.464

$$$$
lig.pdb
 OpenBabel11021811523D
libRbt.so/2013.1/901 2013/11/27
 22 23  0  0  0  0  0  0  0  0999 V2000
   16.5931   -9.7723   25.3312 C   0  0  1  0  0  0  0  0  0  0  0  0
   18.4837   -8.5198   26.3826 C   0  0  1  0  0  0  0  0  0  0  0  0
   17.8361   -7.0170   26.4899 C   0  0  1  0  0  0  0  0  0  0  0  0
   19.0561   -5.9684   26.5741 C   0  0  2  0  0  0  0  0  0  0  0  0
   15.2779  -10.6068   25.6742 C   0  0  1  0  0  0  0  0  0  0  0  0
   15.6358  -12.1216   25.9365 C   0  0  2  0  0  0  0  0  0  0  0  0
   16.2767  -12.7297   24.5942 C   0  0  1  0  0  0  0  0  0  0  0  0
   17.6586  -11.9625   24.2383 C   0  0  1  0  0  0  0  0  0  0  0  0
   18.3573  -12.4938   22.9561 C   0  0  0  0  0  0  0  0  0  0  0  0
   19.8713   -6.2803   27.9232 C   0  0  1  0  0  0  0  0  0  0  0  0
   20.4788   -7.7673   27.7879 C   0  0  0  0  0  0  0  0  0  0  0  0
   19.3134   -8.8373   27.6497 C   0  0  2  0  0  0  0  0  0  0  0  0
   16.6196  -14.1474   24.7490 F   0  0  0  0  0  0  0  0  0  0  0  0
   14.6560   -9.9164   26.8974 N   0  0  0  0  0  0  0  0  0  0  0  0
   18.8607  -13.8137   23.0676 N   0  0  0  0  0  0  0  0  0  0  0  0
   21.0332   -5.3458   28.0580 N   0  0  0  0  0  0  0  0  0  0  0  0
   19.8508  -10.1874   27.5101 N   0  0  0  0  0  0  0  0  0  0  0  0
   17.5008   -9.5290   26.3310 O   0  0  0  0  0  0  0  0  0  0  0  0
   17.0551   -6.7574   25.2413 O   0  0  0  0  0  0  0  0  0  0  0  0
   18.5163   -4.6935   26.6672 O   0  0  0  0  0  0  0  0  0  0  0  0
   14.6326  -12.6880   26.1776 O   0  0  0  0  0  0  0  0  0  0  0  0
   17.3068  -10.4335   24.1083 O   0  0  0  0  0  0  0  0  0  0  0  0
  1  5  1  0  0  0  0
  1 18  1  1  0  0  0
  2 18  1  1  0  0  0
  2  3  1  0  0  0  0
  2 12  1  0  0  0  0
  3 19  1  6  0  0  0
  3  4  1  0  0  0  0
  4 20  1  1  0  0  0
  4 10  1  0  0  0  0
  5  6  1  0  0  0  0
  5 14  1  1  0  0  0
  6 21  1  6  0  0  0
  7 13  1  1  0  0  0
  7  6  1  0  0  0  0
  8  9  1  6  0  0  0
  8  7  1  0  0  0  0
 10 16  1  6  0  0  0
 11 10  1  0  0  0  0
 12 17  1  6  0  0  0
 12 11  1  0  0  0  0
 15  9  1  0  0  0  0
 22  8  1  0  0  0  0
 22  1  1  0  0  0  0
M  END
>  <CHROM.1>
-159.06569485,66.82667419,-67.28222614,17.72971549,-9.67199273,25.89412424
1.94882642,-0.07167943,-2.73598973

>  <Name>
lig.pdb

>  <RI>
0

>  <Rbt.Current_Directory>
/home/itssahil/PROJECTS/Mol_Feturizer/New_Systems/rnas/5bxk

>  <Rbt.Executable>
rbdock ($Id: //depot/dev/client3/rdock/2013.1/src/exe/rbdock.cxx#4 $)

>  <Rbt.Library>
libRbt.so (2013.1, Build901 2013/11/27)

>  <Rbt.Parameter_File>
/export/apps/rDock/src/rDock_2013.1_src/data/scripts/dock_solv.prm

>  <Rbt.Receptor>
prm/pocket_docking_3.prm

>  <SCORE>
-9.3948

>  <SCORE.INTER>
-6.79327

>  <SCORE.INTER.CONST>
1

>  <SCORE.INTER.POLAR>
0

>  <SCORE.INTER.ROT>
3

>  <SCORE.INTER.SOLV>
21.0546

>  <SCORE.INTER.VDW>
-17.147

>  <SCORE.INTER.norm>
-0.308785

>  <SCORE.INTRA>
-2.60153

>  <SCORE.INTRA.DIHEDRAL>
-4.74778

>  <SCORE.INTRA.DIHEDRAL.0>
7.18044

>  <SCORE.INTRA.POLAR>
0

>  <SCORE.INTRA.POLAR.0>
0

>  <SCORE.INTRA.REPUL>
0

>  <SCORE.INTRA.REPUL.0>
0

>  <SCORE.INTRA.SOLV>
-0.59356

>  <SCORE.INTRA.SOLV.lig_0>
-72.0615

>  <SCORE.INTRA.VDW>
0.0691415

>  <SCORE.INTRA.VDW.0>
-1.54792

>  <SCORE.INTRA.norm>
-0.118251

>  <SCORE.RESTR>
0

>  <SCORE.RESTR.CAVITY>
0

>  <SCORE.RESTR.norm>
0

>  <SCORE.SYSTEM>
0

>  <SCORE.SYSTEM.CONST>
0

>  <SCORE.SYSTEM.DIHEDRAL>
0

>  <SCORE.SYSTEM.SOLV>
0

>  <SCORE.SYSTEM.norm>
0

>  <SCORE.heavy>
22

>  <SCORE.norm>
-0.427036

>  <RMSD>
1.481

$$$$
lig.pdb
 OpenBabel11021811523D
libRbt.so/2013.1/901 2013/11/27
 22 23  0  0  0  0  0  0  0  0999 V2000
   16.5394   -9.7554   25.3211 C   0  0  1  0  0  0  0  0  0  0  0  0
   18.4179   -8.4981   26.3882 C   0  0  1  0  0  0  0  0  0  0  0  0
   17.7753   -6.9929   26.4913 C   0  0  1  0  0  0  0  0  0  0  0  0
   18.9988   -5.9487   26.5805 C   0  0  2  0  0  0  0  0  0  0  0  0
   15.2261  -10.5997   25.6475 C   0  0  1  0  0  0  0  0  0  0  0  0
   15.5923  -12.1113   25.9167 C   0  0  2  0  0  0  0  0  0  0  0  0
   16.2560  -12.7161   24.5840 C   0  0  1  0  0  0  0  0  0  0  0  0
   17.6365  -11.9386   24.2457 C   0  0  1  0  0  0  0  0  0  0  0  0
   18.3565  -12.4661   22.9737 C   0  0  0  0  0  0  0  0  0  0  0  0
   19.8065   -6.2626   27.9337 C   0  0  1  0  0  0  0  0  0  0  0  0
   20.4091   -7.7519   27.8024 C   0  0  0  0  0  0  0  0  0  0  0  0
   19.2405   -8.8177   27.6595 C   0  0  2  0  0  0  0  0  0  0  0  0
   16.6078  -14.1310   24.7453 F   0  0  0  0  0  0  0  0  0  0  0  0
   14.5825   -9.9126   26.8612 N   0  0  0  0  0  0  0  0  0  0  0  0
   18.8466  -13.7910   23.0851 N   0  0  0  0  0  0  0  0  0  0  0  0
   20.9711   -5.3323   28.0733 N   0  0  0  0  0  0  0  0  0  0  0  0
   19.7735  -10.1699   27.5234 N   0  0  0  0  0  0  0  0  0  0  0  0
   17.4316   -9.5038   26.3326 O   0  0  0  0  0  0  0  0  0  0  0  0
   17.0013   -6.7313   25.2388 O   0  0  0  0  0  0  0  0  0  0  0  0
   18.4632   -4.6718   26.6701 O   0  0  0  0  0  0  0  0  0  0  0  0
   14.5904  -12.6853   26.1451 O   0  0  0  0  0  0  0  0  0  0  0  0
   17.2745  -10.4126   24.1088 O   0  0  0  0  0  0  0  0  0  0  0  0
  1  5  1  0  0  0  0
  1 18  1  1  0  0  0
  2 18  1  1  0  0  0
  2  3  1  0  0  0  0
  2 12  1  0  0  0  0
  3 19  1  6  0  0  0
  3  4  1  0  0  0  0
  4 20  1  1  0  0  0
  4 10  1  0  0  0  0
  5  6  1  0  0  0  0
  5 14  1  1  0  0  0
  6 21  1  6  0  0  0
  7 13  1  1  0  0  0
  7  6  1  0  0  0  0
  8  9  1  6  0  0  0
  8  7  1  0  0  0  0
 10 16  1  6  0  0  0
 11 10  1  0  0  0  0
 12 17  1  6  0  0  0
 12 11  1  0  0  0  0
 15  9  1  0  0  0  0
 22  8  1  0  0  0  0
 22  1  1  0  0  0  0
M  END
>  <CHROM.1>
-160.01201258,67.76369739,-66.15339542,17.68156292,-9.65430549,25.89318173
1.94393736,-0.06340030,-2.73873938

>  <Name>
lig.pdb

>  <RI>
0

>  <Rbt.Current_Directory>
/home/itssahil/PROJECTS/Mol_Feturizer/New_Systems/rnas/5bxk

>  <Rbt.Executable>
rbdock ($Id: //depot/dev/client3/rdock/2013.1/src/exe/rbdock.cxx#4 $)

>  <Rbt.Library>
libRbt.so (2013.1, Build901 2013/11/27)

>  <Rbt.Parameter_File>
/export/apps/rDock/src/rDock_2013.1_src/data/scripts/dock_solv.prm

>  <Rbt.Receptor>
prm/pocket_docking_3.prm

>  <SCORE>
-9.37605

>  <SCORE.INTER>
-6.71056

>  <SCORE.INTER.CONST>
1

>  <SCORE.INTER.POLAR>
0

>  <SCORE.INTER.ROT>
3

>  <SCORE.INTER.SOLV>
20.9623

>  <SCORE.INTER.VDW>
-17.0611

>  <SCORE.INTER.norm>
-0.305026

>  <SCORE.INTRA>
-2.66549

>  <SCORE.INTRA.DIHEDRAL>
-4.88619

>  <SCORE.INTRA.DIHEDRAL.0>
7.18044

>  <SCORE.INTRA.POLAR>
0

>  <SCORE.INTRA.POLAR.0>
0

>  <SCORE.INTRA.REPUL>
0

>  <SCORE.INTRA.REPUL.0>
0

>  <SCORE.INTRA.SOLV>
-0.577878

>  <SCORE.INTRA.SOLV.lig_0>
-72.0615

>  <SCORE.INTRA.VDW>
0.0665475

>  <SCORE.INTRA.VDW.0>
-1.54792

>  <SCORE.INTRA.norm>
-0.121158

>  <SCORE.RESTR>
0

>  <SCORE.RESTR.CAVITY>
0

>  <SCORE.RESTR.norm>
0

>  <SCORE.SYSTEM>
0

>  <SCORE.SYSTEM.CONST>
0

>  <SCORE.SYSTEM.DIHEDRAL>
0

>  <SCORE.SYSTEM.SOLV>
0

>  <SCORE.SYSTEM.norm>
0

>  <SCORE.heavy>
22

>  <SCORE.norm>
-0.426184

>  <RMSD>
1.488

$$$$
lig.pdb
 OpenBabel11021811523D
libRbt.so/2013.1/901 2013/11/27
 22 23  0  0  0  0  0  0  0  0999 V2000
   16.6017   -9.8058   25.3232 C   0  0  1  0  0  0  0  0  0  0  0  0
   18.4838   -8.5513   26.3874 C   0  0  1  0  0  0  0  0  0  0  0  0
   17.8392   -7.0484   26.5104 C   0  0  1  0  0  0  0  0  0  0  0  0
   19.0614   -6.0026   26.5983 C   0  0  2  0  0  0  0  0  0  0  0  0
   15.2822  -10.6377   25.6562 C   0  0  1  0  0  0  0  0  0  0  0  0
   15.6362  -12.1514   25.9295 C   0  0  2  0  0  0  0  0  0  0  0  0
   16.2908  -12.7664   24.5969 C   0  0  1  0  0  0  0  0  0  0  0  0
   17.6769  -12.0019   24.2520 C   0  0  1  0  0  0  0  0  0  0  0  0
   18.3887  -12.5398   22.9798 C   0  0  0  0  0  0  0  0  0  0  0  0
   19.8820   -6.3275   27.9411 C   0  0  1  0  0  0  0  0  0  0  0  0
   20.4863   -7.8143   27.7903 C   0  0  0  0  0  0  0  0  0  0  0  0
   19.3185   -8.8811   27.6481 C   0  0  2  0  0  0  0  0  0  0  0  0
   16.6309  -14.1836   24.7620 F   0  0  0  0  0  0  0  0  0  0  0  0
   14.6481   -9.9410   26.8695 N   0  0  0  0  0  0  0  0  0  0  0  0
   18.8079  -13.8904   23.0700 N   0  0  0  0  0  0  0  0  0  0  0  0
   21.0460   -5.3961   28.0788 N   0  0  0  0  0  0  0  0  0  0  0  0
   19.8529  -10.2309   27.4945 N   0  0  0  0  0  0  0  0  0  0  0  0
   17.4990   -9.5584   26.3313 O   0  0  0  0  0  0  0  0  0  0  0  0
   17.0534   -6.7768   25.2674 O   0  0  0  0  0  0  0  0  0  0  0  0
   18.5242   -4.7277   26.7047 O   0  0  0  0  0  0  0  0  0  0  0  0
   14.6302  -12.7160   26.1627 O   0  0  0  0  0  0  0  0  0  0  0  0
   17.3277  -10.4733   24.1110 O   0  0  0  0  0  0  0  0  0  0  0  0
  1  5  1  0  0  0  0
  1 18  1  1  0  0  0
  2 18  1  1  0  0  0
  2  3  1  0  0  0  0
  2 12  1  0  0  0  0
  3 19  1  6  0  0  0
  3  4  1  0  0  0  0
  4 20  1  1  0  0  0
  4 10  1  0  0  0  0
  5  6  1  0  0  0  0
  5 14  1  1  0  0  0
  6 21  1  6  0  0  0
  7 13  1  1  0  0  0
  7  6  1  0  0  0  0
  8  9  1  6  0  0  0
  8  7  1  0  0  0  0
 10 16  1  6  0  0  0
 11 10  1  0  0  0  0
 12 17  1  6  0  0  0
 12 11  1  0  0  0  0
 15  9  1  0  0  0  0
 22  8  1  0  0  0  0
 22  1  1  0  0  0  0
M  END
>  <CHROM.1>
-159.20369726,68.05275984,-63.12805594,17.73417447,-9.70966839,25.89985540
1.94752648,-0.05982938,-2.73863619

>  <Name>
lig.pdb

>  <RI>
0

>  <Rbt.Current_Directory>
/home/itssahil/PROJECTS/Mol_Feturizer/New_Systems/rnas/5bxk

>  <Rbt.Executable>
rbdock ($Id: //depot/dev/client3/rdock/2013.1/src/exe/rbdock.cxx#4 $)

>  <Rbt.Library>
libRbt.so (2013.1, Build901 2013/11/27)

>  <Rbt.Parameter_File>
/export/apps/rDock/src/rDock_2013.1_src/data/scripts/dock_solv.prm

>  <Rbt.Receptor>
prm/pocket_docking_4.prm

>  <SCORE>
-9.33984

>  <SCORE.INTER>
-6.76031

>  <SCORE.INTER.CONST>
1

>  <SCORE.INTER.POLAR>
0

>  <SCORE.INTER.ROT>
3

>  <SCORE.INTER.SOLV>
21.0442

>  <SCORE.INTER.VDW>
-17.1216

>  <SCORE.INTER.norm>
-0.307287

>  <SCORE.INTRA>
-2.57953

>  <SCORE.INTRA.DIHEDRAL>
-4.83564

>  <SCORE.INTRA.DIHEDRAL.0>
7.18044

>  <SCORE.INTRA.POLAR>
0

>  <SCORE.INTRA.POLAR.0>
0

>  <SCORE.INTRA.REPUL>
0

>  <SCORE.INTRA.REPUL.0>
0

>  <SCORE.INTRA.SOLV>
-0.49041

>  <SCORE.INTRA.SOLV.lig_0>
-72.0615

>  <SCORE.INTRA.VDW>
0.0834986

>  <SCORE.INTRA.VDW.0>
-1.54792

>  <SCORE.INTRA.norm>
-0.117251

>  <SCORE.RESTR>
0

>  <SCORE.RESTR.CAVITY>
0

>  <SCORE.RESTR.norm>
0

>  <SCORE.SYSTEM>
0

>  <SCORE.SYSTEM.CONST>
0

>  <SCORE.SYSTEM.DIHEDRAL>
0

>  <SCORE.SYSTEM.SOLV>
0

>  <SCORE.SYSTEM.norm>
0

>  <SCORE.heavy>
22

>  <SCORE.norm>
-0.424538

>  <RMSD>
1.496

$$$$
lig.pdb
 OpenBabel11021811523D
libRbt.so/2013.1/901 2013/11/27
 22 23  0  0  0  0  0  0  0  0999 V2000
   16.5264   -9.7723   25.3381 C   0  0  1  0  0  0  0  0  0  0  0  0
   18.4102   -8.5072   26.3865 C   0  0  1  0  0  0  0  0  0  0  0  0
   17.7610   -7.0054   26.4980 C   0  0  1  0  0  0  0  0  0  0  0  0
   18.9800   -5.9550   26.5755 C   0  0  2  0  0  0  0  0  0  0  0  0
   15.2188  -10.6197   25.6788 C   0  0  1  0  0  0  0  0  0  0  0  0
   15.5915  -12.1302   25.9451 C   0  0  2  0  0  0  0  0  0  0  0  0
   16.2427  -12.7342   24.6058 C   0  0  1  0  0  0  0  0  0  0  0  0
   17.6176  -11.9534   24.2526 C   0  0  1  0  0  0  0  0  0  0  0  0
   18.3256  -12.4798   22.9735 C   0  0  0  0  0  0  0  0  0  0  0  0
   19.8034   -6.2662   27.9198 C   0  0  1  0  0  0  0  0  0  0  0  0
   20.4122   -7.7523   27.7805 C   0  0  0  0  0  0  0  0  0  0  0  0
   19.2477   -8.8239   27.6487 C   0  0  2  0  0  0  0  0  0  0  0  0
   16.5997  -14.1480   24.7643 F   0  0  0  0  0  0  0  0  0  0  0  0
   14.5862   -9.9335   26.8989 N   0  0  0  0  0  0  0  0  0  0  0  0
   18.8085  -13.8081   23.0759 N   0  0  0  0  0  0  0  0  0  0  0  0
   20.9647   -5.3300   28.0482 N   0  0  0  0  0  0  0  0  0  0  0  0
   19.7861  -10.1732   27.5056 N   0  0  0  0  0  0  0  0  0  0  0  0
   17.4285   -9.5178   26.3401 O   0  0  0  0  0  0  0  0  0  0  0  0
   16.9726   -6.7465   25.2539 O   0  0  0  0  0  0  0  0  0  0  0  0
   18.4389   -4.6809   26.6721 O   0  0  0  0  0  0  0  0  0  0  0  0
   14.5936  -12.7066   26.1843 O   0  0  0  0  0  0  0  0  0  0  0  0
   17.2504  -10.4284   24.1186 O   0  0  0  0  0  0  0  0  0  0  0  0
  1  5  1  0  0  0  0
  1 18  1  1  0  0  0
  2 18  1  1  0  0  0
  2  3  1  0  0  0  0
  2 12  1  0  0  0  0
  3 19  1  6  0  0  0
  3  4  1  0  0  0  0
  4 20  1  1  0  0  0
  4 10  1  0  0  0  0
  5  6  1  0  0  0  0
  5 14  1  1  0  0  0
  6 21  1  6  0  0  0
  7 13  1  1  0  0  0
  7  6  1  0  0  0  0
  8  9  1  6  0  0  0
  8  7  1  0  0  0  0
 10 16  1  6  0  0  0
 11 10  1  0  0  0  0
 12 17  1  6  0  0  0
 12 11  1  0  0  0  0
 15  9  1  0  0  0  0
 22  8  1  0  0  0  0
 22  1  1  0  0  0  0
M  END
>  <CHROM.1>
-159.80583551,67.70811475,-65.56195170,17.67089629,-9.66681273,25.89980550
1.94424072,-0.07353641,-2.73872249

>  <Name>
lig.pdb

>  <RI>
0

>  <Rbt.Current_Directory>
/home/itssahil/PROJECTS/Mol_Feturizer/New_Systems/rnas/5bxk

>  <Rbt.Executable>
rbdock ($Id: //depot/dev/client3/rdock/2013.1/src/exe/rbdock.cxx#4 $)

>  <Rbt.Library>
libRbt.so (2013.1, Build901 2013/11/27)

>  <Rbt.Parameter_File>
/export/apps/rDock/src/rDock_2013.1_src/data/scripts/dock_solv.prm

>  <Rbt.Receptor>
prm/pocket_docking_6.prm

>  <SCORE>
-9.37871

>  <SCORE.INTER>
-6.72648

>  <SCORE.INTER.CONST>
1

>  <SCORE.INTER.POLAR>
0

>  <SCORE.INTER.ROT>
3

>  <SCORE.INTER.SOLV>
20.9763

>  <SCORE.INTER.VDW>
-17.0764

>  <SCORE.INTER.norm>
-0.305749

>  <SCORE.INTRA>
-2.65223

>  <SCORE.INTRA.DIHEDRAL>
-4.88239

>  <SCORE.INTRA.DIHEDRAL.0>
7.18044

>  <SCORE.INTRA.POLAR>
0

>  <SCORE.INTRA.POLAR.0>
0

>  <SCORE.INTRA.REPUL>
0

>  <SCORE.INTRA.REPUL.0>
0

>  <SCORE.INTRA.SOLV>
-0.563353

>  <SCORE.INTRA.SOLV.lig_0>
-72.0615

>  <SCORE.INTRA.VDW>
0.0706392

>  <SCORE.INTRA.VDW.0>
-1.54792

>  <SCORE.INTRA.norm>
-0.120556

>  <SCORE.RESTR>
0

>  <SCORE.RESTR.CAVITY>
0

>  <SCORE.RESTR.norm>
0

>  <SCORE.SYSTEM>
0

>  <SCORE.SYSTEM.CONST>
0

>  <SCORE.SYSTEM.DIHEDRAL>
0

>  <SCORE.SYSTEM.SOLV>
0

>  <SCORE.SYSTEM.norm>
0

>  <SCORE.heavy>
22

>  <SCORE.norm>
-0.426305

>  <RMSD>
1.497

$$$$
lig.pdb
 OpenBabel11021811523D
libRbt.so/2013.1/901 2013/11/27
 22 23  0  0  0  0  0  0  0  0999 V2000
   16.5937   -9.7887   25.3331 C   0  0  1  0  0  0  0  0  0  0  0  0
   18.4783   -8.5279   26.3854 C   0  0  1  0  0  0  0  0  0  0  0  0
   17.8280   -7.0265   26.4956 C   0  0  1  0  0  0  0  0  0  0  0  0
   19.0462   -5.9756   26.5779 C   0  0  2  0  0  0  0  0  0  0  0  0
   15.2905  -10.6445   25.6696 C   0  0  1  0  0  0  0  0  0  0  0  0
   15.6703  -12.1556   25.9220 C   0  0  2  0  0  0  0  0  0  0  0  0
   16.3207  -12.7453   24.5761 C   0  0  1  0  0  0  0  0  0  0  0  0
   17.6915  -11.9557   24.2262 C   0  0  1  0  0  0  0  0  0  0  0  0
   18.3985  -12.4682   22.9409 C   0  0  0  0  0  0  0  0  0  0  0  0
   19.8652   -6.2872   27.9248 C   0  0  1  0  0  0  0  0  0  0  0  0
   20.4752   -7.7729   27.7867 C   0  0  0  0  0  0  0  0  0  0  0  0
   19.3116   -8.8450   27.6502 C   0  0  2  0  0  0  0  0  0  0  0  0
   16.6841  -14.1589   24.7215 F   0  0  0  0  0  0  0  0  0  0  0  0
   14.6580   -9.9714   26.8971 N   0  0  0  0  0  0  0  0  0  0  0  0
   18.8991  -13.7905   23.0354 N   0  0  0  0  0  0  0  0  0  0  0  0
   21.0256   -5.3506   28.0578 N   0  0  0  0  0  0  0  0  0  0  0  0
   19.8512  -10.1940   27.5081 N   0  0  0  0  0  0  0  0  0  0  0  0
   17.4972   -9.5390   26.3350 O   0  0  0  0  0  0  0  0  0  0  0  0
   17.0437   -6.7672   25.2490 O   0  0  0  0  0  0  0  0  0  0  0  0
   18.5042   -4.7018   26.6734 O   0  0  0  0  0  0  0  0  0  0  0  0
   14.6754  -12.7382   26.1587 O   0  0  0  0  0  0  0  0  0  0  0  0
   17.3175  -10.4312   24.1062 O   0  0  0  0  0  0  0  0  0  0  0  0
  1  5  1  0  0  0  0
  1 18  1  1  0  0  0
  2 18  1  1  0  0  0
  2  3  1  0  0  0  0
  2 12  1  0  0  0  0
  3 19  1  6  0  0  0
  3  4  1  0  0  0  0
  4 20  1  1  0  0  0
  4 10  1  0  0  0  0
  5  6  1  0  0  0  0
  5 14  1  1  0  0  0
  6 21  1  6  0  0  0
  7 13  1  1  0  0  0
  7  6  1  0  0  0  0
  8  9  1  6  0  0  0
  8  7  1  0  0  0  0
 10 16  1  6  0  0  0
 11 10  1  0  0  0  0
 12 17  1  6  0  0  0
 12 11  1  0  0  0  0
 15  9  1  0  0  0  0
 22  8  1  0  0  0  0
 22  1  1  0  0  0  0
M  END
>  <CHROM.1>
-160.07988498,67.31216733,-66.16580256,17.74201914,-9.68326662,25.88864231
1.94303844,-0.07929155,-2.73156586

>  <Name>
lig.pdb

>  <RI>
0

>  <Rbt.Current_Directory>
/home/itssahil/PROJECTS/Mol_Feturizer/New_Systems/rnas/5bxk

>  <Rbt.Executable>
rbdock ($Id: //depot/dev/client3/rdock/2013.1/src/exe/rbdock.cxx#4 $)

>  <Rbt.Library>
libRbt.so (2013.1, Build901 2013/11/27)

>  <Rbt.Parameter_File>
/export/apps/rDock/src/rDock_2013.1_src/data/scripts/dock_solv.prm

>  <Rbt.Receptor>
prm/pocket_docking_3.prm

>  <SCORE>
-9.42463

>  <SCORE.INTER>
-6.73231

>  <SCORE.INTER.CONST>
1

>  <SCORE.INTER.POLAR>
0

>  <SCORE.INTER.ROT>
3

>  <SCORE.INTER.SOLV>
21.1098

>  <SCORE.INTER.VDW>
-17.1248

>  <SCORE.INTER.norm>
-0.306014

>  <SCORE.INTRA>
-2.69231

>  <SCORE.INTRA.DIHEDRAL>
-4.92903

>  <SCORE.INTRA.DIHEDRAL.0>
7.18044

>  <SCORE.INTRA.POLAR>
0

>  <SCORE.INTRA.POLAR.0>
0

>  <SCORE.INTRA.REPUL>
0

>  <SCORE.INTRA.REPUL.0>
0

>  <SCORE.INTRA.SOLV>
-0.598336

>  <SCORE.INTRA.SOLV.lig_0>
-72.0615

>  <SCORE.INTRA.VDW>
0.0713681

>  <SCORE.INTRA.VDW.0>
-1.54792

>  <SCORE.INTRA.norm>
-0.122378

>  <SCORE.RESTR>
0

>  <SCORE.RESTR.CAVITY>
0

>  <SCORE.RESTR.norm>
0

>  <SCORE.SYSTEM>
0

>  <SCORE.SYSTEM.CONST>
0

>  <SCORE.SYSTEM.DIHEDRAL>
0

>  <SCORE.SYSTEM.SOLV>
0

>  <SCORE.SYSTEM.norm>
0

>  <SCORE.heavy>
22

>  <SCORE.norm>
-0.428392

>  <RMSD>
1.503

$$$$
lig.pdb
 OpenBabel11021811523D
libRbt.so/2013.1/901 2013/11/27
 22 23  0  0  0  0  0  0  0  0999 V2000
   16.5554   -9.9491   25.2796 C   0  0  1  0  0  0  0  0  0  0  0  0
   18.4665   -8.7018   26.2996 C   0  0  1  0  0  0  0  0  0  0  0  0
   17.7835   -7.2139   26.3944 C   0  0  1  0  0  0  0  0  0  0  0  0
   18.9782   -6.1371   26.4848 C   0  0  2  0  0  0  0  0  0  0  0  0
   15.1788  -10.6366   25.6996 C   0  0  1  0  0  0  0  0  0  0  0  0
   15.4035  -12.1603   26.0450 C   0  0  2  0  0  0  0  0  0  0  0  0
   15.9504  -12.9021   24.7286 C   0  0  1  0  0  0  0  0  0  0  0  0
   17.3868  -12.2884   24.2984 C   0  0  1  0  0  0  0  0  0  0  0  0
   17.9998  -12.9557   23.0361 C   0  0  0  0  0  0  0  0  0  0  0  0
   19.7883   -6.4244   27.8425 C   0  0  1  0  0  0  0  0  0  0  0  0
   20.4310   -7.8976   27.7192 C   0  0  0  0  0  0  0  0  0  0  0  0
   19.2919   -8.9947   27.5755 C   0  0  2  0  0  0  0  0  0  0  0  0
   16.1661  -14.3342   24.9612 F   0  0  0  0  0  0  0  0  0  0  0  0
   14.6552   -9.8216   26.8919 N   0  0  0  0  0  0  0  0  0  0  0  0
   19.3467  -12.5974   22.7798 N   0  0  0  0  0  0  0  0  0  0  0  0
   20.9271   -5.4628   27.9835 N   0  0  0  0  0  0  0  0  0  0  0  0
   19.8614  -10.3327   27.4466 N   0  0  0  0  0  0  0  0  0  0  0  0
   17.5076   -9.7336   26.2437 O   0  0  0  0  0  0  0  0  0  0  0  0
   17.0081   -6.9777   25.1377 O   0  0  0  0  0  0  0  0  0  0  0  0
   18.4084   -4.8746   26.5674 O   0  0  0  0  0  0  0  0  0  0  0  0
   14.3594  -12.6162   26.3408 O   0  0  0  0  0  0  0  0  0  0  0  0
   17.1730  -10.7435   24.0840 O   0  0  0  0  0  0  0  0  0  0  0  0
  1  5  1  0  0  0  0
  1 18  1  1  0  0  0
  2 18  1  1  0  0  0
  2  3  1  0  0  0  0
  2 12  1  0  0  0  0
  3 19  1  6  0  0  0
  3  4  1  0  0  0  0
  4 20  1  1  0  0  0
  4 10  1  0  0  0  0
  5  6  1  0  0  0  0
  5 14  1  1  0  0  0
  6 21  1  6  0  0  0
  7 13  1  1  0  0  0
  7  6  1  0  0  0  0
  8  9  1  6  0  0  0
  8  7  1  0  0  0  0
 10 16  1  6  0  0  0
 11 10  1  0  0  0  0
 12 17  1  6  0  0  0
 12 11  1  0  0  0  0
 15  9  1  0  0  0  0
 22  8  1  0  0  0  0
 22  1  1  0  0  0  0
M  END
>  <CHROM.1>
-149.57485813,62.04437866,-169.67974905,17.62246262,-9.77225461,25.87440345
2.00090612,-0.16932319,-2.70492578

>  <Name>
lig.pdb

>  <RI>
0

>  <Rbt.Current_Directory>
/home/itssahil/PROJECTS/Mol_Feturizer/New_Systems/rnas/5bxk

>  <Rbt.Executable>
rbdock ($Id: //depot/dev/client3/rdock/2013.1/src/exe/rbdock.cxx#4 $)

>  <Rbt.Library>
libRbt.so (2013.1, Build901 2013/11/27)

>  <Rbt.Parameter_File>
/export/apps/rDock/src/rDock_2013.1_src/data/scripts/dock_solv.prm

>  <Rbt.Receptor>
prm/pocket_docking_3.prm

>  <SCORE>
-8.04293

>  <SCORE.INTER>
-5.96082

>  <SCORE.INTER.CONST>
1

>  <SCORE.INTER.POLAR>
0

>  <SCORE.INTER.ROT>
3

>  <SCORE.INTER.SOLV>
24.5172

>  <SCORE.INTER.VDW>
-17.7463

>  <SCORE.INTER.norm>
-0.270946

>  <SCORE.INTRA>
-2.08452

>  <SCORE.INTRA.DIHEDRAL>
-3.10362

>  <SCORE.INTRA.DIHEDRAL.0>
7.18044

>  <SCORE.INTRA.POLAR>
0

>  <SCORE.INTRA.POLAR.0>
0

>  <SCORE.INTRA.REPUL>
0

>  <SCORE.INTRA.REPUL.0>
0

>  <SCORE.INTRA.SOLV>
-1.32311

>  <SCORE.INTRA.SOLV.lig_0>
-72.0615

>  <SCORE.INTRA.VDW>
0.12884

>  <SCORE.INTRA.VDW.0>
-1.54792

>  <SCORE.INTRA.norm>
-0.0947511

>  <SCORE.RESTR>
0.00241809

>  <SCORE.RESTR.CAVITY>
0.00241809

>  <SCORE.RESTR.norm>
0.000109913

>  <SCORE.SYSTEM>
0

>  <SCORE.SYSTEM.CONST>
0

>  <SCORE.SYSTEM.DIHEDRAL>
0

>  <SCORE.SYSTEM.SOLV>
0

>  <SCORE.SYSTEM.norm>
0

>  <SCORE.heavy>
22

>  <SCORE.norm>
-0.365588

>  <RMSD>
1.505

$$$$
lig.pdb
 OpenBabel11021811523D
libRbt.so/2013.1/901 2013/11/27
 22 23  0  0  0  0  0  0  0  0999 V2000
   16.5882   -9.8045   25.3188 C   0  0  1  0  0  0  0  0  0  0  0  0
   18.4710   -8.5371   26.3662 C   0  0  1  0  0  0  0  0  0  0  0  0
   17.8062   -7.0419   26.4743 C   0  0  1  0  0  0  0  0  0  0  0  0
   19.0141   -5.9794   26.5590 C   0  0  2  0  0  0  0  0  0  0  0  0
   15.2721  -10.6339   25.6710 C   0  0  1  0  0  0  0  0  0  0  0  0
   15.6273  -12.1479   25.9410 C   0  0  2  0  0  0  0  0  0  0  0  0
   16.2623  -12.7654   24.6002 C   0  0  1  0  0  0  0  0  0  0  0  0
   17.6448  -12.0036   24.2352 C   0  0  1  0  0  0  0  0  0  0  0  0
   18.3379  -12.5440   22.9538 C   0  0  0  0  0  0  0  0  0  0  0  0
   19.8329   -6.2827   27.9079 C   0  0  1  0  0  0  0  0  0  0  0  0
   20.4573   -7.7625   27.7718 C   0  0  0  0  0  0  0  0  0  0  0  0
   19.3043   -8.8457   27.6331 C   0  0  2  0  0  0  0  0  0  0  0  0
   16.6024  -14.1830   24.7621 F   0  0  0  0  0  0  0  0  0  0  0  0
   14.6559   -9.9348   26.8923 N   0  0  0  0  0  0  0  0  0  0  0  0
   18.8239  -13.8704   23.0660 N   0  0  0  0  0  0  0  0  0  0  0  0
   20.9839   -5.3349   28.0431 N   0  0  0  0  0  0  0  0  0  0  0  0
   19.8571  -10.1895   27.4928 N   0  0  0  0  0  0  0  0  0  0  0  0
   17.4997   -9.5575   26.3140 O   0  0  0  0  0  0  0  0  0  0  0  0
   17.0223   -6.7907   25.2258 O   0  0  0  0  0  0  0  0  0  0  0  0
   18.4597   -4.7108   26.6527 O   0  0  0  0  0  0  0  0  0  0  0  0
   14.6237  -12.7106   26.1888 O   0  0  0  0  0  0  0  0  0  0  0  0
   17.2961  -10.4745   24.0974 O   0  0  0  0  0  0  0  0  0  0  0  0
  1  5  1  0  0  0  0
  1 18  1  1  0  0  0
  2 18  1  1  0  0  0
  2  3  1  0  0  0  0
  2 12  1  0  0  0  0
  3 19  1  6  0  0  0
  3  4  1  0  0  0  0
  4 20  1  1  0  0  0
  4 10  1  0  0  0  0
  5  6  1  0  0  0  0
  5 14  1  1  0  0  0
  6 21  1  6  0  0  0
  7 13  1  1  0  0  0
  7  6  1  0  0  0  0
  8  9  1  6  0  0  0
  8  7  1  0  0  0  0
 10 16  1  6  0  0  0
 11 10  1  0  0  0  0
 12 17  1  6  0  0  0
 12 11  1  0  0  0  0
 15  9  1  0  0  0  0
 22  8  1  0  0  0  0
 22  1  1  0  0  0  0
M  END
>  <CHROM.1>
-157.94808961,66.28438041,-66.53842938,17.71019018,-9.69586323,25.88635575
1.94388024,-0.07126206,-2.73971341

>  <Name>
lig.pdb

>  <RI>
0

>  <Rbt.Current_Directory>
/home/itssahil/PROJECTS/Mol_Feturizer/New_Systems/rnas/5bxk

>  <Rbt.Executable>
rbdock ($Id: //depot/dev/client3/rdock/2013.1/src/exe/rbdock.cxx#4 $)

>  <Rbt.Library>
libRbt.so (2013.1, Build901 2013/11/27)

>  <Rbt.Parameter_File>
/export/apps/rDock/src/rDock_2013.1_src/data/scripts/dock_solv.prm

>  <Rbt.Receptor>
prm/pocket_docking_8.prm

>  <SCORE>
-9.35319

>  <SCORE.INTER>
-6.83405

>  <SCORE.INTER.CONST>
1

>  <SCORE.INTER.POLAR>
0

>  <SCORE.INTER.ROT>
3

>  <SCORE.INTER.SOLV>
21.0055

>  <SCORE.INTER.VDW>
-17.1578

>  <SCORE.INTER.norm>
-0.310638

>  <SCORE.INTRA>
-2.51914

>  <SCORE.INTRA.DIHEDRAL>
-4.63543

>  <SCORE.INTRA.DIHEDRAL.0>
7.18044

>  <SCORE.INTRA.POLAR>
0

>  <SCORE.INTRA.POLAR.0>
0

>  <SCORE.INTRA.REPUL>
0

>  <SCORE.INTRA.REPUL.0>
0

>  <SCORE.INTRA.SOLV>
-0.559171

>  <SCORE.INTRA.SOLV.lig_0>
-72.0615

>  <SCORE.INTRA.VDW>
0.0781578

>  <SCORE.INTRA.VDW.0>
-1.54792

>  <SCORE.INTRA.norm>
-0.114506

>  <SCORE.RESTR>
0

>  <SCORE.RESTR.CAVITY>
0

>  <SCORE.RESTR.norm>
0

>  <SCORE.SYSTEM>
0

>  <SCORE.SYSTEM.CONST>
0

>  <SCORE.SYSTEM.DIHEDRAL>
0

>  <SCORE.SYSTEM.SOLV>
0

>  <SCORE.SYSTEM.norm>
0

>  <SCORE.heavy>
22

>  <SCORE.norm>
-0.425145

>  <RMSD>
1.506

$$$$
lig.pdb
 OpenBabel11021811523D
libRbt.so/2013.1/901 2013/11/27
 22 23  0  0  0  0  0  0  0  0999 V2000
   16.5581   -9.9446   25.2689 C   0  0  1  0  0  0  0  0  0  0  0  0
   18.4649   -8.6924   26.2909 C   0  0  1  0  0  0  0  0  0  0  0  0
   17.7741   -7.2078   26.3810 C   0  0  1  0  0  0  0  0  0  0  0  0
   18.9630   -6.1250   26.4755 C   0  0  2  0  0  0  0  0  0  0  0  0
   15.1815  -10.6309   25.6908 C   0  0  1  0  0  0  0  0  0  0  0  0
   15.4056  -12.1545   26.0371 C   0  0  2  0  0  0  0  0  0  0  0  0
   15.9507  -12.8976   24.7207 C   0  0  1  0  0  0  0  0  0  0  0  0
   17.3870  -12.2852   24.2885 C   0  0  1  0  0  0  0  0  0  0  0  0
   17.9984  -12.9538   23.0261 C   0  0  0  0  0  0  0  0  0  0  0  0
   19.7683   -6.4067   27.8372 C   0  0  1  0  0  0  0  0  0  0  0  0
   20.4189   -7.8768   27.7185 C   0  0  0  0  0  0  0  0  0  0  0  0
   19.2860   -8.9797   27.5708 C   0  0  2  0  0  0  0  0  0  0  0  0
   16.1658  -14.3296   24.9540 F   0  0  0  0  0  0  0  0  0  0  0  0
   14.6597   -9.8148   26.8830 N   0  0  0  0  0  0  0  0  0  0  0  0
   19.3511  -12.6114   22.7789 N   0  0  0  0  0  0  0  0  0  0  0  0
   20.9017   -5.4393   27.9822 N   0  0  0  0  0  0  0  0  0  0  0  0
   19.8627  -10.3150   27.4461 N   0  0  0  0  0  0  0  0  0  0  0  0
   17.5114   -9.7291   26.2318 O   0  0  0  0  0  0  0  0  0  0  0  0
   17.0032   -6.9769   25.1205 O   0  0  0  0  0  0  0  0  0  0  0  0
   18.3865   -4.8652   26.5541 O   0  0  0  0  0  0  0  0  0  0  0  0
   14.3615  -12.6095   26.3342 O   0  0  0  0  0  0  0  0  0  0  0  0
   17.1740  -10.7402   24.0733 O   0  0  0  0  0  0  0  0  0  0  0  0
  1  5  1  0  0  0  0
  1 18  1  1  0  0  0
  2 18  1  1  0  0  0
  2  3  1  0  0  0  0
  2 12  1  0  0  0  0
  3 19  1  6  0  0  0
  3  4  1  0  0  0  0
  4 20  1  1  0  0  0
  4 10  1  0  0  0  0
  5  6  1  0  0  0  0
  5 14  1  1  0  0  0
  6 21  1  6  0  0  0
  7 13  1  1  0  0  0
  7  6  1  0  0  0  0
  8  9  1  6  0  0  0
  8  7  1  0  0  0  0
 10 16  1  6  0  0  0
 11 10  1  0  0  0  0
 12 17  1  6  0  0  0
 12 11  1  0  0  0  0
 15  9  1  0  0  0  0
 22  8  1  0  0  0  0
 22  1  1  0  0  0  0
M  END
>  <CHROM.1>
-149.08409541,61.50785244,-168.82219071,17.61831687,-9.76467251,25.86631431
1.99739211,-0.16880269,-2.70576692

>  <Name>
lig.pdb

>  <RI>
0

>  <Rbt.Current_Directory>
/home/itssahil/PROJECTS/Mol_Feturizer/New_Systems/rnas/5bxk

>  <Rbt.Executable>
rbdock ($Id: //depot/dev/client3/rdock/2013.1/src/exe/rbdock.cxx#4 $)

>  <Rbt.Library>
libRbt.so (2013.1, Build901 2013/11/27)

>  <Rbt.Parameter_File>
/export/apps/rDock/src/rDock_2013.1_src/data/scripts/dock_solv.prm

>  <Rbt.Receptor>
prm/pocket_docking_3.prm

>  <SCORE>
-8.04838

>  <SCORE.INTER>
-6.0414

>  <SCORE.INTER.CONST>
1

>  <SCORE.INTER.POLAR>
0

>  <SCORE.INTER.ROT>
3

>  <SCORE.INTER.SOLV>
24.4299

>  <SCORE.INTER.VDW>
-17.7709

>  <SCORE.INTER.norm>
-0.274609

>  <SCORE.INTRA>
-2.00698

>  <SCORE.INTRA.DIHEDRAL>
-2.96064

>  <SCORE.INTRA.DIHEDRAL.0>
7.18044

>  <SCORE.INTRA.POLAR>
0

>  <SCORE.INTRA.POLAR.0>
0

>  <SCORE.INTRA.REPUL>
0

>  <SCORE.INTRA.REPUL.0>
0

>  <SCORE.INTRA.SOLV>
-1.32307

>  <SCORE.INTRA.SOLV.lig_0>
-72.0615

>  <SCORE.INTRA.VDW>
0.134877

>  <SCORE.INTRA.VDW.0>
-1.54792

>  <SCORE.INTRA.norm>
-0.0912264

>  <SCORE.RESTR>
0

>  <SCORE.RESTR.CAVITY>
0

>  <SCORE.RESTR.norm>
0

>  <SCORE.SYSTEM>
0

>  <SCORE.SYSTEM.CONST>
0

>  <SCORE.SYSTEM.DIHEDRAL>
0

>  <SCORE.SYSTEM.SOLV>
0

>  <SCORE.SYSTEM.norm>
0

>  <SCORE.heavy>
22

>  <SCORE.norm>
-0.365836

>  <RMSD>
1.508

$$$$
lig.pdb
 OpenBabel11021811523D
libRbt.so/2013.1/901 2013/11/27
 22 23  0  0  0  0  0  0  0  0999 V2000
   16.5527   -9.9508   25.2786 C   0  0  1  0  0  0  0  0  0  0  0  0
   18.4612   -8.6988   26.2978 C   0  0  1  0  0  0  0  0  0  0  0  0
   17.7693   -7.2137   26.3687 C   0  0  1  0  0  0  0  0  0  0  0  0
   18.9571   -6.1297   26.4643 C   0  0  2  0  0  0  0  0  0  0  0  0
   15.1799  -10.6437   25.7020 C   0  0  1  0  0  0  0  0  0  0  0  0
   15.4103  -12.1680   26.0409 C   0  0  2  0  0  0  0  0  0  0  0  0
   15.9537  -12.9034   24.7194 C   0  0  1  0  0  0  0  0  0  0  0  0
   17.3864  -12.2842   24.2852 C   0  0  1  0  0  0  0  0  0  0  0  0
   17.9959  -12.9451   23.0179 C   0  0  0  0  0  0  0  0  0  0  0  0
   19.7503   -6.3993   27.8355 C   0  0  1  0  0  0  0  0  0  0  0  0
   20.4023   -7.8701   27.7354 C   0  0  0  0  0  0  0  0  0  0  0  0
   19.2709   -8.9747   27.5874 C   0  0  2  0  0  0  0  0  0  0  0  0
   16.1744  -14.3357   24.9457 F   0  0  0  0  0  0  0  0  0  0  0  0
   14.6592   -9.8346   26.8995 N   0  0  0  0  0  0  0  0  0  0  0  0
   19.3432  -12.5884   22.7617 N   0  0  0  0  0  0  0  0  0  0  0  0
   20.8821   -5.4303   27.9820 N   0  0  0  0  0  0  0  0  0  0  0  0
   19.8490  -10.3108   27.4795 N   0  0  0  0  0  0  0  0  0  0  0  0
   17.5085   -9.7362   26.2394 O   0  0  0  0  0  0  0  0  0  0  0  0
   17.0095   -6.9940   25.0995 O   0  0  0  0  0  0  0  0  0  0  0  0
   18.3797   -4.8695   26.5267 O   0  0  0  0  0  0  0  0  0  0  0  0
   14.3688  -12.6279   26.3394 O   0  0  0  0  0  0  0  0  0  0  0  0
   17.1674  -10.7391   24.0775 O   0  0  0  0  0  0  0  0  0  0  0  0
  1  5  1  0  0  0  0
  1 18  1  1  0  0  0
  2 18  1  1  0  0  0
  2  3  1  0  0  0  0
  2 12  1  0  0  0  0
  3 19  1  6  0  0  0
  3  4  1  0  0  0  0
  4 20  1  1  0  0  0
  4 10  1  0  0  0  0
  5  6  1  0  0  0  0
  5 14  1  1  0  0  0
  6 21  1  6  0  0  0
  7 13  1  1  0  0  0
  7  6  1  0  0  0  0
  8  9  1  6  0  0  0
  8  7  1  0  0  0  0
 10 16  1  6  0  0  0
 11 10  1  0  0  0  0
 12 17  1  6  0  0  0
 12 11  1  0  0  0  0
 15  9  1  0  0  0  0
 22  8  1  0  0  0  0
 22  1  1  0  0  0  0
M  END
>  <CHROM.1>
-149.29126039,60.60586056,-169.31411456,17.61400504,-9.76770089,25.86682916
1.99719633,-0.18045280,-2.70118178

>  <Name>
lig.pdb

>  <RI>
0

>  <Rbt.Current_Directory>
/home/itssahil/PROJECTS/Mol_Feturizer/New_Systems/rnas/5bxk

>  <Rbt.Executable>
rbdock ($Id: //depot/dev/client3/rdock/2013.1/src/exe/rbdock.cxx#4 $)

>  <Rbt.Library>
libRbt.so (2013.1, Build901 2013/11/27)

>  <Rbt.Parameter_File>
/export/apps/rDock/src/rDock_2013.1_src/data/scripts/dock_solv.prm

>  <Rbt.Receptor>
prm/pocket_docking_3.prm

>  <SCORE>
-8.029

>  <SCORE.INTER>
-5.98136

>  <SCORE.INTER.CONST>
1

>  <SCORE.INTER.POLAR>
0

>  <SCORE.INTER.ROT>
3

>  <SCORE.INTER.SOLV>
24.4721

>  <SCORE.INTER.VDW>
-17.745

>  <SCORE.INTER.norm>
-0.27188

>  <SCORE.INTRA>
-2.05203

>  <SCORE.INTRA.DIHEDRAL>
-3.0445

>  <SCORE.INTRA.DIHEDRAL.0>
7.18044

>  <SCORE.INTRA.POLAR>
0

>  <SCORE.INTRA.POLAR.0>
0

>  <SCORE.INTRA.REPUL>
0

>  <SCORE.INTRA.REPUL.0>
0

>  <SCORE.INTRA.SOLV>
-1.35386

>  <SCORE.INTRA.SOLV.lig_0>
-72.0615

>  <SCORE.INTRA.VDW>
0.147155

>  <SCORE.INTRA.VDW.0>
-1.54792

>  <SCORE.INTRA.norm>
-0.0932739

>  <SCORE.RESTR>
0.00438673

>  <SCORE.RESTR.CAVITY>
0.00438673

>  <SCORE.RESTR.norm>
0.000199397

>  <SCORE.SYSTEM>
0

>  <SCORE.SYSTEM.CONST>
0

>  <SCORE.SYSTEM.DIHEDRAL>
0

>  <SCORE.SYSTEM.SOLV>
0

>  <SCORE.SYSTEM.norm>
0

>  <SCORE.heavy>
22

>  <SCORE.norm>
-0.364955

>  <RMSD>
1.517

$$$$
lig.pdb
 OpenBabel11021811523D
libRbt.so/2013.1/901 2013/11/27
 22 23  0  0  0  0  0  0  0  0999 V2000
   16.6164   -9.8060   25.2853 C   0  0  1  0  0  0  0  0  0  0  0  0
   18.4672   -8.5257   26.3734 C   0  0  1  0  0  0  0  0  0  0  0  0
   17.8005   -7.0301   26.4632 C   0  0  1  0  0  0  0  0  0  0  0  0
   19.0066   -5.9675   26.5689 C   0  0  2  0  0  0  0  0  0  0  0  0
   15.3087  -10.6634   25.5996 C   0  0  1  0  0  0  0  0  0  0  0  0
   15.6873  -12.1715   25.8713 C   0  0  2  0  0  0  0  0  0  0  0  0
   16.3687  -12.7690   24.5443 C   0  0  1  0  0  0  0  0  0  0  0  0
   17.7445  -11.9777   24.2187 C   0  0  1  0  0  0  0  0  0  0  0  0
   18.4810  -12.4973   22.9530 C   0  0  0  0  0  0  0  0  0  0  0  0
   19.7980   -6.2664   27.9350 C   0  0  1  0  0  0  0  0  0  0  0  0
   20.4248   -7.7468   27.8163 C   0  0  0  0  0  0  0  0  0  0  0  0
   19.2747   -8.8303   27.6579 C   0  0  2  0  0  0  0  0  0  0  0  0
   16.7330  -14.1804   24.7081 F   0  0  0  0  0  0  0  0  0  0  0  0
   14.6475   -9.9833   26.8079 N   0  0  0  0  0  0  0  0  0  0  0  0
   18.9832  -13.8174   23.0682 N   0  0  0  0  0  0  0  0  0  0  0  0
   20.9462   -5.3184   28.0904 N   0  0  0  0  0  0  0  0  0  0  0  0
   19.8300  -10.1746   27.5331 N   0  0  0  0  0  0  0  0  0  0  0  0
   17.4970   -9.5462   26.3049 O   0  0  0  0  0  0  0  0  0  0  0  0
   17.0421   -6.7828   25.1984 O   0  0  0  0  0  0  0  0  0  0  0  0
   18.4506   -4.6985   26.6473 O   0  0  0  0  0  0  0  0  0  0  0  0
   14.6891  -12.7554   26.0905 O   0  0  0  0  0  0  0  0  0  0  0  0
   17.3688  -10.4552   24.0794 O   0  0  0  0  0  0  0  0  0  0  0  0
  1  5  1  0  0  0  0
  1 18  1  1  0  0  0
  2 18  1  1  0  0  0
  2  3  1  0  0  0  0
  2 12  1  0  0  0  0
  3 19  1  6  0  0  0
  3  4  1  0  0  0  0
  4 20  1  1  0  0  0
  4 10  1  0  0  0  0
  5  6  1  0  0  0  0
  5 14  1  1  0  0  0
  6 21  1  6  0  0  0
  7 13  1  1  0  0  0
  7  6  1  0  0  0  0
  8  9  1  6  0  0  0
  8  7  1  0  0  0  0
 10 16  1  6  0  0  0
 11 10  1  0  0  0  0
 12 17  1  6  0  0  0
 12 11  1  0  0  0  0
 15  9  1  0  0  0  0
 22  8  1  0  0  0  0
 22  1  1  0  0  0  0
M  END
>  <CHROM.1>
-159.57263770,67.13486213,-66.15726234,17.74473370,-9.68954588,25.86933641
1.92773716,-0.05905588,-2.73887029

>  <Name>
lig.pdb

>  <RI>
0

>  <Rbt.Current_Directory>
/home/itssahil/PROJECTS/Mol_Feturizer/New_Systems/rnas/5bxk

>  <Rbt.Executable>
rbdock ($Id: //depot/dev/client3/rdock/2013.1/src/exe/rbdock.cxx#4 $)

>  <Rbt.Library>
libRbt.so (2013.1, Build901 2013/11/27)

>  <Rbt.Parameter_File>
/export/apps/rDock/src/rDock_2013.1_src/data/scripts/dock_solv.prm

>  <Rbt.Receptor>
prm/pocket_docking_3.prm

>  <SCORE>
-9.39897

>  <SCORE.INTER>
-6.74814

>  <SCORE.INTER.CONST>
1

>  <SCORE.INTER.POLAR>
0

>  <SCORE.INTER.ROT>
3

>  <SCORE.INTER.SOLV>
20.8772

>  <SCORE.INTER.VDW>
-17.0578

>  <SCORE.INTER.norm>
-0.306734

>  <SCORE.INTRA>
-2.65083

>  <SCORE.INTRA.DIHEDRAL>
-4.86161

>  <SCORE.INTRA.DIHEDRAL.0>
7.18044

>  <SCORE.INTRA.POLAR>
0

>  <SCORE.INTRA.POLAR.0>
0

>  <SCORE.INTRA.REPUL>
0

>  <SCORE.INTRA.REPUL.0>
0

>  <SCORE.INTRA.SOLV>
-0.58574

>  <SCORE.INTRA.SOLV.lig_0>
-72.0615

>  <SCORE.INTRA.VDW>
0.0728469

>  <SCORE.INTRA.VDW.0>
-1.54792

>  <SCORE.INTRA.norm>
-0.120492

>  <SCORE.RESTR>
0

>  <SCORE.RESTR.CAVITY>
0

>  <SCORE.RESTR.norm>
0

>  <SCORE.SYSTEM>
0

>  <SCORE.SYSTEM.CONST>
0

>  <SCORE.SYSTEM.DIHEDRAL>
0

>  <SCORE.SYSTEM.SOLV>
0

>  <SCORE.SYSTEM.norm>
0

>  <SCORE.heavy>
22

>  <SCORE.norm>
-0.427226

>  <RMSD>
1.532

$$$$
lig.pdb
 OpenBabel11021811523D
libRbt.so/2013.1/901 2013/11/27
 22 23  0  0  0  0  0  0  0  0999 V2000
   16.0721   -8.1798   26.3581 C   0  0  1  0  0  0  0  0  0  0  0  0
   18.0252   -8.1021   27.9163 C   0  0  1  0  0  0  0  0  0  0  0  0
   18.6853   -6.7080   27.3594 C   0  0  1  0  0  0  0  0  0  0  0  0
   20.2306   -6.6881   27.8139 C   0  0  2  0  0  0  0  0  0  0  0  0
   14.5285   -8.5584   26.2245 C   0  0  1  0  0  0  0  0  0  0  0  0
   14.3155  -10.1052   26.4558 C   0  0  2  0  0  0  0  0  0  0  0  0
   15.1251  -10.9028   25.3197 C   0  0  1  0  0  0  0  0  0  0  0  0
   16.7126  -10.6091   25.4553 C   0  0  1  0  0  0  0  0  0  0  0  0
   17.5788  -11.3507   24.3998 C   0  0  0  0  0  0  0  0  0  0  0  0
   20.2633   -6.6729   29.4204 C   0  0  1  0  0  0  0  0  0  0  0  0
   19.5942   -8.0480   29.9304 C   0  0  0  0  0  0  0  0  0  0  0  0
   18.0795   -8.1403   29.4624 C   0  0  2  0  0  0  0  0  0  0  0  0
   14.9609  -12.3543   25.4522 F   0  0  0  0  0  0  0  0  0  0  0  0
   13.7976   -7.6903   27.2598 N   0  0  0  0  0  0  0  0  0  0  0  0
   17.5613  -12.7630   24.5155 N   0  0  0  0  0  0  0  0  0  0  0  0
   21.6771   -6.6676   29.9129 N   0  0  0  0  0  0  0  0  0  0  0  0
   17.4661   -9.3892   29.9042 N   0  0  0  0  0  0  0  0  0  0  0  0
   16.6564   -8.2160   27.5990 O   0  0  0  0  0  0  0  0  0  0  0  0
   18.6165   -6.7257   25.8656 O   0  0  0  0  0  0  0  0  0  0  0  0
   20.7965   -5.5099   27.3480 O   0  0  0  0  0  0  0  0  0  0  0  0
   13.1656  -10.3277   26.3402 O   0  0  0  0  0  0  0  0  0  0  0  0
   16.8945   -9.0487   25.3527 O   0  0  0  0  0  0  0  0  0  0  0  0
  1  5  1  0  0  0  0
  1 18  1  1  0  0  0
  2 18  1  1  0  0  0
  2  3  1  0  0  0  0
  2 12  1  0  0  0  0
  3 19  1  6  0  0  0
  3  4  1  0  0  0  0
  4 20  1  6  0  0  0
  4 10  1  0  0  0  0
  5  6  1  0  0  0  0
  5 14  1  1  0  0  0
  6 21  1  6  0  0  0
  7 13  1  1  0  0  0
  7  6  1  0  0  0  0
  8  9  1  6  0  0  0
  8  7  1  0  0  0  0
 10 16  1  6  0  0  0
 11 10  1  0  0  0  0
 12 17  1  6  0  0  0
 12 11  1  0  0  0  0
 15  9  1  0  0  0  0
 22  8  1  0  0  0  0
 22  1  1  0  0  0  0
M  END
>  <CHROM.1>
170.48611165,57.28369224,-64.98569377,17.27264826,-8.80305186,27.02835603
2.34462784,-0.08376900,-2.40839899

>  <Name>
lig.pdb

>  <RI>
0

>  <Rbt.Current_Directory>
/home/itssahil/PROJECTS/Mol_Feturizer/New_Systems/rnas/5bxk

>  <Rbt.Executable>
rbdock ($Id: //depot/dev/client3/rdock/2013.1/src/exe/rbdock.cxx#4 $)

>  <Rbt.Library>
libRbt.so (2013.1, Build901 2013/11/27)

>  <Rbt.Parameter_File>
/export/apps/rDock/src/rDock_2013.1_src/data/scripts/dock_solv.prm

>  <Rbt.Receptor>
prm/pocket_docking_6.prm

>  <SCORE>
-8.30828

>  <SCORE.INTER>
-4.71357

>  <SCORE.INTER.CONST>
1

>  <SCORE.INTER.POLAR>
0

>  <SCORE.INTER.ROT>
3

>  <SCORE.INTER.SOLV>
12.2772

>  <SCORE.INTER.VDW>
-12.8348

>  <SCORE.INTER.norm>
-0.214253

>  <SCORE.INTRA>
-3.59471

>  <SCORE.INTRA.DIHEDRAL>
-6.4991

>  <SCORE.INTRA.DIHEDRAL.0>
7.18044

>  <SCORE.INTRA.POLAR>
0

>  <SCORE.INTRA.POLAR.0>
0

>  <SCORE.INTRA.REPUL>
0

>  <SCORE.INTRA.REPUL.0>
0

>  <SCORE.INTRA.SOLV>
-0.897986

>  <SCORE.INTRA.SOLV.lig_0>
-72.0615

>  <SCORE.INTRA.VDW>
0.103838

>  <SCORE.INTRA.VDW.0>
-1.54792

>  <SCORE.INTRA.norm>
-0.163396

>  <SCORE.RESTR>
0

>  <SCORE.RESTR.CAVITY>
0

>  <SCORE.RESTR.norm>
0

>  <SCORE.SYSTEM>
0

>  <SCORE.SYSTEM.CONST>
0

>  <SCORE.SYSTEM.DIHEDRAL>
0

>  <SCORE.SYSTEM.SOLV>
0

>  <SCORE.SYSTEM.norm>
0

>  <SCORE.heavy>
22

>  <SCORE.norm>
-0.377649

>  <RMSD>
1.545

$$$$
lig.pdb
 OpenBabel11021811523D
libRbt.so/2013.1/901 2013/11/27
 22 23  0  0  0  0  0  0  0  0999 V2000
   16.0403   -8.2358   26.3827 C   0  0  1  0  0  0  0  0  0  0  0  0
   18.0069   -8.1435   27.9229 C   0  0  1  0  0  0  0  0  0  0  0  0
   18.6612   -6.7626   27.3277 C   0  0  1  0  0  0  0  0  0  0  0  0
   20.2097   -6.7299   27.7705 C   0  0  2  0  0  0  0  0  0  0  0  0
   14.4691   -8.4908   26.2809 C   0  0  1  0  0  0  0  0  0  0  0  0
   14.1328  -10.0032   26.5823 C   0  0  2  0  0  0  0  0  0  0  0  0
   14.8588  -10.9133   25.4747 C   0  0  1  0  0  0  0  0  0  0  0  0
   16.4667  -10.7464   25.5817 C   0  0  1  0  0  0  0  0  0  0  0  0
   17.2549  -11.6020   24.5516 C   0  0  0  0  0  0  0  0  0  0  0  0
   20.2539   -6.6758   29.3759 C   0  0  1  0  0  0  0  0  0  0  0  0
   19.5903   -8.0389   29.9238 C   0  0  0  0  0  0  0  0  0  0  0  0
   18.0724   -8.1442   29.4691 C   0  0  2  0  0  0  0  0  0  0  0  0
   14.5776  -12.3392   25.6727 F   0  0  0  0  0  0  0  0  0  0  0  0
   13.8259   -7.5214   27.2841 N   0  0  0  0  0  0  0  0  0  0  0  0
   18.6638  -11.5246   24.6818 N   0  0  0  0  0  0  0  0  0  0  0  0
   21.6712   -6.6570   29.8580 N   0  0  0  0  0  0  0  0  0  0  0  0
   17.4637   -9.3827   29.9454 N   0  0  0  0  0  0  0  0  0  0  0  0
   16.6360   -8.2666   27.6183 O   0  0  0  0  0  0  0  0  0  0  0  0
   18.5819   -6.8166   25.8353 O   0  0  0  0  0  0  0  0  0  0  0  0
   20.7707   -5.5628   27.2721 O   0  0  0  0  0  0  0  0  0  0  0  0
   12.9670  -10.1346   26.4878 O   0  0  0  0  0  0  0  0  0  0  0  0
   16.7750   -9.2123   25.4087 O   0  0  0  0  0  0  0  0  0  0  0  0
  1  5  1  0  0  0  0
  1 18  1  1  0  0  0
  2 18  1  1  0  0  0
  2  3  1  0  0  0  0
  2 12  1  0  0  0  0
  3 19  1  6  0  0  0
  3  4  1  0  0  0  0
  4 20  1  6  0  0  0
  4 10  1  0  0  0  0
  5  6  1  0  0  0  0
  5 14  1  1  0  0  0
  6 21  1  6  0  0  0
  7 13  1  1  0  0  0
  7  6  1  0  0  0  0
  8  9  1  6  0  0  0
  8  7  1  0  0  0  0
 10 16  1  6  0  0  0
 11 10  1  0  0  0  0
 12 17  1  6  0  0  0
 12 11  1  0  0  0  0
 15  9  1  0  0  0  0
 22  8  1  0  0  0  0
 22  1  1  0  0  0  0
M  END
>  <CHROM.1>
176.13714080,55.93036873,-176.62992366,17.22856819,-8.76516397,27.07799805
2.41970443,-0.13588922,-2.34840352

>  <Name>
lig.pdb

>  <RI>
0

>  <Rbt.Current_Directory>
/home/itssahil/PROJECTS/Mol_Feturizer/New_Systems/rnas/5bxk

>  <Rbt.Executable>
rbdock ($Id: //depot/dev/client3/rdock/2013.1/src/exe/rbdock.cxx#4 $)

>  <Rbt.Library>
libRbt.so (2013.1, Build901 2013/11/27)

>  <Rbt.Parameter_File>
/export/apps/rDock/src/rDock_2013.1_src/data/scripts/dock_solv.prm

>  <Rbt.Receptor>
prm/pocket_docking_8.prm

>  <SCORE>
-8.38272

>  <SCORE.INTER>
-4.11522

>  <SCORE.INTER.CONST>
1

>  <SCORE.INTER.POLAR>
0

>  <SCORE.INTER.ROT>
3

>  <SCORE.INTER.SOLV>
14.3847

>  <SCORE.INTER.VDW>
-13.1384

>  <SCORE.INTER.norm>
-0.187056

>  <SCORE.INTRA>
-4.2675

>  <SCORE.INTRA.DIHEDRAL>
-6.85128

>  <SCORE.INTRA.DIHEDRAL.0>
7.18044

>  <SCORE.INTRA.POLAR>
0

>  <SCORE.INTRA.POLAR.0>
0

>  <SCORE.INTRA.REPUL>
0

>  <SCORE.INTRA.REPUL.0>
0

>  <SCORE.INTRA.SOLV>
-1.84593

>  <SCORE.INTRA.SOLV.lig_0>
-72.0615

>  <SCORE.INTRA.VDW>
0.0811063

>  <SCORE.INTRA.VDW.0>
-1.54792

>  <SCORE.INTRA.norm>
-0.193977

>  <SCORE.RESTR>
0

>  <SCORE.RESTR.CAVITY>
0

>  <SCORE.RESTR.norm>
0

>  <SCORE.SYSTEM>
0

>  <SCORE.SYSTEM.CONST>
0

>  <SCORE.SYSTEM.DIHEDRAL>
0

>  <SCORE.SYSTEM.SOLV>
0

>  <SCORE.SYSTEM.norm>
0

>  <SCORE.heavy>
22

>  <SCORE.norm>
-0.381033

>  <RMSD>
1.563

$$$$
lig.pdb
 OpenBabel11021811523D
libRbt.so/2013.1/901 2013/11/27
 22 23  0  0  0  0  0  0  0  0999 V2000
   16.0481   -8.1654   26.4400 C   0  0  1  0  0  0  0  0  0  0  0  0
   18.0388   -8.1301   27.9514 C   0  0  1  0  0  0  0  0  0  0  0  0
   18.6789   -6.7215   27.4080 C   0  0  1  0  0  0  0  0  0  0  0  0
   20.2343   -6.7025   27.8269 C   0  0  2  0  0  0  0  0  0  0  0  0
   14.4901   -8.4922   26.3410 C   0  0  1  0  0  0  0  0  0  0  0  0
   14.2337  -10.0358   26.5483 C   0  0  2  0  0  0  0  0  0  0  0  0
   14.9869  -10.8356   25.3755 C   0  0  1  0  0  0  0  0  0  0  0  0
   16.5860  -10.5951   25.4736 C   0  0  1  0  0  0  0  0  0  0  0  0
   17.3997  -11.3424   24.3810 C   0  0  0  0  0  0  0  0  0  0  0  0
   20.3043   -6.7199   29.4321 C   0  0  1  0  0  0  0  0  0  0  0  0
   19.6541   -8.1086   29.9292 C   0  0  0  0  0  0  0  0  0  0  0  0
   18.1293   -8.1995   29.4947 C   0  0  2  0  0  0  0  0  0  0  0  0
   14.7796  -12.2836   25.4845 F   0  0  0  0  0  0  0  0  0  0  0  0
   13.8151   -7.6224   27.4123 N   0  0  0  0  0  0  0  0  0  0  0  0
   17.3669  -12.7549   24.4898 N   0  0  0  0  0  0  0  0  0  0  0  0
   21.7292   -6.7170   29.8917 N   0  0  0  0  0  0  0  0  0  0  0  0
   17.5325   -9.4604   29.9250 N   0  0  0  0  0  0  0  0  0  0  0  0
   16.6635   -8.2449   27.6637 O   0  0  0  0  0  0  0  0  0  0  0  0
   18.5754   -6.7091   25.9162 O   0  0  0  0  0  0  0  0  0  0  0  0
   20.7833   -5.5120   27.3721 O   0  0  0  0  0  0  0  0  0  0  0  0
   13.0746  -10.2195   26.4596 O   0  0  0  0  0  0  0  0  0  0  0  0
   16.8152   -9.0395   25.3962 O   0  0  0  0  0  0  0  0  0  0  0  0
  1  5  1  0  0  0  0
  1 18  1  1  0  0  0
  2 18  1  1  0  0  0
  2  3  1  0  0  0  0
  2 12  1  0  0  0  0
  3 19  1  6  0  0  0
  3  4  1  0  0  0  0
  4 20  1  1  0  0  0
  4 10  1  0  0  0  0
  5  6  1  0  0  0  0
  5 14  1  1  0  0  0
  6 21  1  6  0  0  0
  7 13  1  1  0  0  0
  7  6  1  0  0  0  0
  8  9  1  6  0  0  0
  8  7  1  0  0  0  0
 10 16  1  6  0  0  0
 11 10  1  0  0  0  0
 12 17  1  6  0  0  0
 12 11  1  0  0  0  0
 15  9  1  0  0  0  0
 22  8  1  0  0  0  0
 22  1  1  0  0  0  0
M  END
>  <CHROM.1>
173.11875723,56.14744010,-66.47306766,17.22984221,-8.79497344,27.07151195
2.36612382,-0.08454776,-2.39984963

>  <Name>
lig.pdb

>  <RI>
0

>  <Rbt.Current_Directory>
/home/itssahil/PROJECTS/Mol_Feturizer/New_Systems/rnas/5bxk

>  <Rbt.Executable>
rbdock ($Id: //depot/dev/client3/rdock/2013.1/src/exe/rbdock.cxx#4 $)

>  <Rbt.Library>
libRbt.so (2013.1, Build901 2013/11/27)

>  <Rbt.Parameter_File>
/export/apps/rDock/src/rDock_2013.1_src/data/scripts/dock_solv.prm

>  <Rbt.Receptor>
prm/pocket_docking_4.prm

>  <SCORE>
-8.29891

>  <SCORE.INTER>
-4.62221

>  <SCORE.INTER.CONST>
1

>  <SCORE.INTER.POLAR>
0

>  <SCORE.INTER.ROT>
3

>  <SCORE.INTER.SOLV>
12.2837

>  <SCORE.INTER.VDW>
-12.776

>  <SCORE.INTER.norm>
-0.2101

>  <SCORE.INTRA>
-3.6767

>  <SCORE.INTRA.DIHEDRAL>
-6.60069

>  <SCORE.INTRA.DIHEDRAL.0>
7.18044

>  <SCORE.INTRA.POLAR>
0

>  <SCORE.INTRA.POLAR.0>
0

>  <SCORE.INTRA.REPUL>
0

>  <SCORE.INTRA.REPUL.0>
0

>  <SCORE.INTRA.SOLV>
-0.930986

>  <SCORE.INTRA.SOLV.lig_0>
-72.0615

>  <SCORE.INTRA.VDW>
0.0891317

>  <SCORE.INTRA.VDW.0>
-1.54792

>  <SCORE.INTRA.norm>
-0.167123

>  <SCORE.RESTR>
0

>  <SCORE.RESTR.CAVITY>
0

>  <SCORE.RESTR.norm>
0

>  <SCORE.SYSTEM>
0

>  <SCORE.SYSTEM.CONST>
0

>  <SCORE.SYSTEM.DIHEDRAL>
0

>  <SCORE.SYSTEM.SOLV>
0

>  <SCORE.SYSTEM.norm>
0

>  <SCORE.heavy>
22

>  <SCORE.norm>
-0.377223

>  <RMSD>
1.567

$$$$
lig.pdb
 OpenBabel11021811523D
libRbt.so/2013.1/901 2013/11/27
 22 23  0  0  0  0  0  0  0  0999 V2000
   16.3463   -8.4798   26.3189 C   0  0  1  0  0  0  0  0  0  0  0  0
   18.0506   -8.1034   28.1083 C   0  0  1  0  0  0  0  0  0  0  0  0
   18.7299   -6.7381   27.5051 C   0  0  1  0  0  0  0  0  0  0  0  0
   20.1944   -6.5950   28.1606 C   0  0  2  0  0  0  0  0  0  0  0  0
   14.8031   -8.7454   26.0153 C   0  0  1  0  0  0  0  0  0  0  0  0
   14.3860  -10.1915   26.4909 C   0  0  2  0  0  0  0  0  0  0  0  0
   15.2493  -11.2648   25.6633 C   0  0  1  0  0  0  0  0  0  0  0  0
   16.8257  -11.0854   25.9914 C   0  0  1  0  0  0  0  0  0  0  0  0
   17.7400  -12.0929   25.2407 C   0  0  0  0  0  0  0  0  0  0  0  0
   20.0010   -6.4222   29.7464 C   0  0  1  0  0  0  0  0  0  0  0  0
   19.3188   -7.7736   30.3001 C   0  0  0  0  0  0  0  0  0  0  0  0
   17.8891   -7.9884   29.6430 C   0  0  2  0  0  0  0  0  0  0  0  0
   14.9047  -12.6417   26.0332 F   0  0  0  0  0  0  0  0  0  0  0  0
   14.0391   -7.6299   26.7445 N   0  0  0  0  0  0  0  0  0  0  0  0
   17.6935  -11.9860   23.8284 N   0  0  0  0  0  0  0  0  0  0  0  0
   21.3307   -6.2967   30.4230 N   0  0  0  0  0  0  0  0  0  0  0  0
   17.2668   -9.2182   30.1242 N   0  0  0  0  0  0  0  0  0  0  0  0
   16.7450   -8.3175   27.6217 O   0  0  0  0  0  0  0  0  0  0  0  0
   18.8719   -6.9043   26.0257 O   0  0  0  0  0  0  0  0  0  0  0  0
   20.7757   -5.4402   27.6565 O   0  0  0  0  0  0  0  0  0  0  0  0
   13.2454  -10.3344   26.2382 O   0  0  0  0  0  0  0  0  0  0  0  0
   17.1960   -9.5978   25.6333 O   0  0  0  0  0  0  0  0  0  0  0  0
  1  5  1  0  0  0  0
  1 18  1  1  0  0  0
  2 18  1  6  0  0  0
  2  3  1  0  0  0  0
  2 12  1  0  0  0  0
  3 19  1  6  0  0  0
  3  4  1  0  0  0  0
  4 20  1  6  0  0  0
  4 10  1  0  0  0  0
  5  6  1  0  0  0  0
  5 14  1  1  0  0  0
  6 21  1  6  0  0  0
  7 13  1  1  0  0  0
  7  6  1  0  0  0  0
  8  9  1  6  0  0  0
  8  7  1  0  0  0  0
 10 16  1  1  0  0  0
 11 10  1  0  0  0  0
 12 17  1  1  0  0  0
 12 11  1  0  0  0  0
 15  9  1  0  0  0  0
 22  8  1  0  0  0  0
 22  1  1  0  0  0  0
M  END
>  <CHROM.1>
178.57042160,59.84221312,61.95117033,17.31063198,-8.85826773,27.20807826
2.28590576,-0.18418609,-2.34167167

>  <Name>
lig.pdb

>  <RI>
0

>  <Rbt.Current_Directory>
/home/itssahil/PROJECTS/Mol_Feturizer/New_Systems/rnas/5bxk

>  <Rbt.Executable>
rbdock ($Id: //depot/dev/client3/rdock/2013.1/src/exe/rbdock.cxx#4 $)

>  <Rbt.Library>
libRbt.so (2013.1, Build901 2013/11/27)

>  <Rbt.Parameter_File>
/export/apps/rDock/src/rDock_2013.1_src/data/scripts/dock_solv.prm

>  <Rbt.Receptor>
prm/pocket_docking_4.prm

>  <SCORE>
-7.35716

>  <SCORE.INTER>
-3.4592

>  <SCORE.INTER.CONST>
1

>  <SCORE.INTER.POLAR>
0

>  <SCORE.INTER.ROT>
3

>  <SCORE.INTER.SOLV>
13.8796

>  <SCORE.INTER.VDW>
-12.5327

>  <SCORE.INTER.norm>
-0.157236

>  <SCORE.INTRA>
-3.89796

>  <SCORE.INTRA.DIHEDRAL>
-7.02103

>  <SCORE.INTRA.DIHEDRAL.0>
7.18044

>  <SCORE.INTRA.POLAR>
0

>  <SCORE.INTRA.POLAR.0>
0

>  <SCORE.INTRA.REPUL>
0

>  <SCORE.INTRA.REPUL.0>
0

>  <SCORE.INTRA.SOLV>
-0.778017

>  <SCORE.INTRA.SOLV.lig_0>
-72.0615

>  <SCORE.INTRA.VDW>
0.00156212

>  <SCORE.INTRA.VDW.0>
-1.54792

>  <SCORE.INTRA.norm>
-0.17718

>  <SCORE.RESTR>
0

>  <SCORE.RESTR.CAVITY>
0

>  <SCORE.RESTR.norm>
0

>  <SCORE.SYSTEM>
0

>  <SCORE.SYSTEM.CONST>
0

>  <SCORE.SYSTEM.DIHEDRAL>
0

>  <SCORE.SYSTEM.SOLV>
0

>  <SCORE.SYSTEM.norm>
0

>  <SCORE.heavy>
22

>  <SCORE.norm>
-0.334416

>  <RMSD>
1.571

$$$$
lig.pdb
 OpenBabel11021811523D
libRbt.so/2013.1/901 2013/11/27
 22 23  0  0  0  0  0  0  0  0999 V2000
   16.3790   -8.4977   26.2916 C   0  0  1  0  0  0  0  0  0  0  0  0
   18.0725   -8.1390   28.0949 C   0  0  1  0  0  0  0  0  0  0  0  0
   18.7707   -6.7787   27.5020 C   0  0  1  0  0  0  0  0  0  0  0  0
   20.2315   -6.6535   28.1693 C   0  0  2  0  0  0  0  0  0  0  0  0
   14.8349   -8.7417   25.9750 C   0  0  1  0  0  0  0  0  0  0  0  0
   14.3926  -10.1802   26.4507 C   0  0  2  0  0  0  0  0  0  0  0  0
   15.2476  -11.2683   25.6337 C   0  0  1  0  0  0  0  0  0  0  0  0
   16.8234  -11.1109   25.9753 C   0  0  1  0  0  0  0  0  0  0  0  0
   17.7296  -12.1336   25.2355 C   0  0  0  0  0  0  0  0  0  0  0  0
   20.0277   -6.4843   29.7542 C   0  0  1  0  0  0  0  0  0  0  0  0
   19.3270   -7.8305   30.2977 C   0  0  0  0  0  0  0  0  0  0  0  0
   17.9003   -8.0278   29.6288 C   0  0  2  0  0  0  0  0  0  0  0  0
   14.8797  -12.6390   26.0042 F   0  0  0  0  0  0  0  0  0  0  0  0
   14.0808   -7.6132   26.6944 N   0  0  0  0  0  0  0  0  0  0  0  0
   17.7084  -12.0204   23.8231 N   0  0  0  0  0  0  0  0  0  0  0  0
   21.3533   -6.3753   30.4415 N   0  0  0  0  0  0  0  0  0  0  0  0
   17.2613   -9.2527   30.1006 N   0  0  0  0  0  0  0  0  0  0  0  0
   16.7685   -8.3375   27.5974 O   0  0  0  0  0  0  0  0  0  0  0  0
   18.9224   -6.9411   26.0232 O   0  0  0  0  0  0  0  0  0  0  0  0
   20.8289   -5.5031   27.6740 O   0  0  0  0  0  0  0  0  0  0  0  0
   13.2523  -10.3073   26.1883 O   0  0  0  0  0  0  0  0  0  0  0  0
   17.2184   -9.6297   25.6166 O   0  0  0  0  0  0  0  0  0  0  0  0
  1  5  1  0  0  0  0
  1 18  1  1  0  0  0
  2 18  1  6  0  0  0
  2  3  1  0  0  0  0
  2 12  1  0  0  0  0
  3 19  1  6  0  0  0
  3  4  1  0  0  0  0
  4 20  1  6  0  0  0
  4 10  1  0  0  0  0
  5  6  1  0  0  0  0
  5 14  1  1  0  0  0
  6 21  1  6  0  0  0
  7 13  1  1  0  0  0
  7  6  1  0  0  0  0
  8  9  1  6  0  0  0
  8  7  1  0  0  0  0
 10 16  1  1  0  0  0
 11 10  1  0  0  0  0
 12 17  1  1  0  0  0
 12 11  1  0  0  0  0
 15  9  1  0  0  0  0
 22  8  1  0  0  0  0
 22  1  1  0  0  0  0
M  END
>  <CHROM.1>
178.67769218,60.20253911,62.60760446,17.32880376,-8.88582258,27.19243789
2.28813597,-0.16457336,-2.34661597

>  <Name>
lig.pdb

>  <RI>
0

>  <Rbt.Current_Directory>
/home/itssahil/PROJECTS/Mol_Feturizer/New_Systems/rnas/5bxk

>  <Rbt.Executable>
rbdock ($Id: //depot/dev/client3/rdock/2013.1/src/exe/rbdock.cxx#4 $)

>  <Rbt.Library>
libRbt.so (2013.1, Build901 2013/11/27)

>  <Rbt.Parameter_File>
/export/apps/rDock/src/rDock_2013.1_src/data/scripts/dock_solv.prm

>  <Rbt.Receptor>
prm/pocket_docking_4.prm

>  <SCORE>
-7.41081

>  <SCORE.INTER>
-3.51444

>  <SCORE.INTER.CONST>
1

>  <SCORE.INTER.POLAR>
0

>  <SCORE.INTER.ROT>
3

>  <SCORE.INTER.SOLV>
13.8972

>  <SCORE.INTER.VDW>
-12.5754

>  <SCORE.INTER.norm>
-0.159747

>  <SCORE.INTRA>
-3.89637

>  <SCORE.INTRA.DIHEDRAL>
-7.01142

>  <SCORE.INTRA.DIHEDRAL.0>
7.18044

>  <SCORE.INTRA.POLAR>
0

>  <SCORE.INTRA.POLAR.0>
0

>  <SCORE.INTRA.REPUL>
0

>  <SCORE.INTRA.REPUL.0>
0

>  <SCORE.INTRA.SOLV>
-0.776268

>  <SCORE.INTRA.SOLV.lig_0>
-72.0615

>  <SCORE.INTRA.VDW>
-0.00252776

>  <SCORE.INTRA.VDW.0>
-1.54792

>  <SCORE.INTRA.norm>
-0.177108

>  <SCORE.RESTR>
0

>  <SCORE.RESTR.CAVITY>
0

>  <SCORE.RESTR.norm>
0

>  <SCORE.SYSTEM>
0

>  <SCORE.SYSTEM.CONST>
0

>  <SCORE.SYSTEM.DIHEDRAL>
0

>  <SCORE.SYSTEM.SOLV>
0

>  <SCORE.SYSTEM.norm>
0

>  <SCORE.heavy>
22

>  <SCORE.norm>
-0.336855

>  <RMSD>
1.572

$$$$
lig.pdb
 OpenBabel11021811523D
libRbt.so/2013.1/901 2013/11/27
 22 23  0  0  0  0  0  0  0  0999 V2000
   16.0434   -8.2378   26.3578 C   0  0  1  0  0  0  0  0  0  0  0  0
   18.0042   -8.1502   27.9056 C   0  0  1  0  0  0  0  0  0  0  0  0
   18.6816   -6.7599   27.3602 C   0  0  1  0  0  0  0  0  0  0  0  0
   20.2304   -6.7690   27.8032 C   0  0  2  0  0  0  0  0  0  0  0  0
   14.4704   -8.4808   26.2536 C   0  0  1  0  0  0  0  0  0  0  0  0
   14.1179   -9.9809   26.5954 C   0  0  2  0  0  0  0  0  0  0  0  0
   14.8417  -10.9287   25.5183 C   0  0  1  0  0  0  0  0  0  0  0  0
   16.4505  -10.7739   25.6305 C   0  0  1  0  0  0  0  0  0  0  0  0
   17.2365  -11.6657   24.6298 C   0  0  0  0  0  0  0  0  0  0  0  0
   20.2752   -6.7735   29.4094 C   0  0  1  0  0  0  0  0  0  0  0  0
   19.5888   -8.1441   29.9082 C   0  0  0  0  0  0  0  0  0  0  0  0
   18.0694   -8.2076   29.4507 C   0  0  2  0  0  0  0  0  0  0  0  0
   14.5457  -12.3458   25.7547 F   0  0  0  0  0  0  0  0  0  0  0  0
   13.8307   -7.4774   27.2250 N   0  0  0  0  0  0  0  0  0  0  0  0
   18.6457  -11.5862   24.7564 N   0  0  0  0  0  0  0  0  0  0  0  0
   21.6925   -6.7957   29.8912 N   0  0  0  0  0  0  0  0  0  0  0  0
   17.4401   -9.4521   29.8824 N   0  0  0  0  0  0  0  0  0  0  0  0
   16.6315   -8.2393   27.5974 O   0  0  0  0  0  0  0  0  0  0  0  0
   18.6015   -6.7587   25.8669 O   0  0  0  0  0  0  0  0  0  0  0  0
   20.8109   -5.5942   27.3469 O   0  0  0  0  0  0  0  0  0  0  0  0
   12.9515  -10.1040   26.4975 O   0  0  0  0  0  0  0  0  0  0  0  0
   16.7744   -9.2483   25.4162 O   0  0  0  0  0  0  0  0  0  0  0  0
  1  5  1  0  0  0  0
  1 18  1  1  0  0  0
  2 18  1  1  0  0  0
  2  3  1  0  0  0  0
  2 12  1  0  0  0  0
  3 19  1  6  0  0  0
  3  4  1  0  0  0  0
  4 20  1  1  0  0  0
  4 10  1  0  0  0  0
  5  6  1  0  0  0  0
  5 14  1  1  0  0  0
  6 21  1  6  0  0  0
  7 13  1  1  0  0  0
  7  6  1  0  0  0  0
  8  9  1  6  0  0  0
  8  7  1  0  0  0  0
 10 16  1  6  0  0  0
 11 10  1  0  0  0  0
 12 17  1  6  0  0  0
 12 11  1  0  0  0  0
 15  9  1  0  0  0  0
 22  8  1  0  0  0  0
 22  1  1  0  0  0  0
M  END
>  <CHROM.1>
174.60166545,60.39327484,-177.31472256,17.22758983,-8.78973557,27.09520775
2.42432790,-0.07922212,-2.40882887

>  <Name>
lig.pdb

>  <RI>
0

>  <Rbt.Current_Directory>
/home/itssahil/PROJECTS/Mol_Feturizer/New_Systems/rnas/5bxk

>  <Rbt.Executable>
rbdock ($Id: //depot/dev/client3/rdock/2013.1/src/exe/rbdock.cxx#4 $)

>  <Rbt.Library>
libRbt.so (2013.1, Build901 2013/11/27)

>  <Rbt.Parameter_File>
/export/apps/rDock/src/rDock_2013.1_src/data/scripts/dock_solv.prm

>  <Rbt.Receptor>
prm/pocket_docking_6.prm

>  <SCORE>
-8.3527

>  <SCORE.INTER>
-4.05846

>  <SCORE.INTER.CONST>
1

>  <SCORE.INTER.POLAR>
0

>  <SCORE.INTER.ROT>
3

>  <SCORE.INTER.SOLV>
14.3613

>  <SCORE.INTER.VDW>
-13.0927

>  <SCORE.INTER.norm>
-0.184476

>  <SCORE.INTRA>
-4.29424

>  <SCORE.INTRA.DIHEDRAL>
-6.88014

>  <SCORE.INTRA.DIHEDRAL.0>
7.18044

>  <SCORE.INTRA.POLAR>
0

>  <SCORE.INTRA.POLAR.0>
0

>  <SCORE.INTRA.REPUL>
0

>  <SCORE.INTRA.REPUL.0>
0

>  <SCORE.INTRA.SOLV>
-1.8352

>  <SCORE.INTRA.SOLV.lig_0>
-72.0615

>  <SCORE.INTRA.VDW>
0.0634316

>  <SCORE.INTRA.VDW.0>
-1.54792

>  <SCORE.INTRA.norm>
-0.195193

>  <SCORE.RESTR>
0

>  <SCORE.RESTR.CAVITY>
0

>  <SCORE.RESTR.norm>
0

>  <SCORE.SYSTEM>
0

>  <SCORE.SYSTEM.CONST>
0

>  <SCORE.SYSTEM.DIHEDRAL>
0

>  <SCORE.SYSTEM.SOLV>
0

>  <SCORE.SYSTEM.norm>
0

>  <SCORE.heavy>
22

>  <SCORE.norm>
-0.379668

>  <RMSD>
1.573

$$$$
lig.pdb
 OpenBabel11021811523D
libRbt.so/2013.1/901 2013/11/27
 22 23  0  0  0  0  0  0  0  0999 V2000
   16.1020   -9.0359   25.7405 C   0  0  1  0  0  0  0  0  0  0  0  0
   17.7598   -7.6715   27.0205 C   0  0  1  0  0  0  0  0  0  0  0  0
   17.3225   -6.1911   26.4670 C   0  0  1  0  0  0  0  0  0  0  0  0
   18.5685   -5.1977   26.7034 C   0  0  2  0  0  0  0  0  0  0  0  0
   14.7931   -9.9393   25.8610 C   0  0  1  0  0  0  0  0  0  0  0  0
   15.1642  -11.3870   26.3687 C   0  0  2  0  0  0  0  0  0  0  0  0
   16.1417  -12.0665   25.2893 C   0  0  1  0  0  0  0  0  0  0  0  0
   17.5222  -11.2256   25.1793 C   0  0  1  0  0  0  0  0  0  0  0  0
   18.5369  -11.8183   24.1626 C   0  0  0  0  0  0  0  0  0  0  0  0
   18.8218   -5.1061   28.2875 C   0  0  1  0  0  0  0  0  0  0  0  0
   19.2336   -6.5790   28.7970 C   0  0  0  0  0  0  0  0  0  0  0  0
   18.0540   -7.6104   28.5386 C   0  0  2  0  0  0  0  0  0  0  0  0
   16.5185  -13.4296   25.6785 F   0  0  0  0  0  0  0  0  0  0  0  0
   13.8578   -9.1881   26.8205 N   0  0  0  0  0  0  0  0  0  0  0  0
   18.0308  -11.9634   22.8470 N   0  0  0  0  0  0  0  0  0  0  0  0
   19.9811   -4.2047   28.5786 N   0  0  0  0  0  0  0  0  0  0  0  0
   18.4204   -8.9525   28.9811 N   0  0  0  0  0  0  0  0  0  0  0  0
   16.7284   -8.6234   26.8894 O   0  0  0  0  0  0  0  0  0  0  0  0
   17.0596   -6.3029   24.9991 O   0  0  0  0  0  0  0  0  0  0  0  0
   18.2057   -3.9414   26.2391 O   0  0  0  0  0  0  0  0  0  0  0  0
   14.1667  -12.0086   26.4329 O   0  0  0  0  0  0  0  0  0  0  0  0
   17.1245   -9.7505   24.7993 O   0  0  0  0  0  0  0  0  0  0  0  0
  1  5  1  0  0  0  0
  1 18  1  1  0  0  0
  2 18  1  1  0  0  0
  2  3  1  0  0  0  0
  2 12  1  0  0  0  0
  3 19  1  6  0  0  0
  3  4  1  0  0  0  0
  4 20  1  1  0  0  0
  4 10  1  0  0  0  0
  5  6  1  0  0  0  0
  5 14  1  1  0  0  0
  6 21  1  6  0  0  0
  7 13  1  1  0  0  0
  7  6  1  0  0  0  0
  8  9  1  6  0  0  0
  8  7  1  0  0  0  0
 10 16  1  6  0  0  0
 11 10  1  0  0  0  0
 12 17  1  6  0  0  0
 12 11  1  0  0  0  0
 15  9  1  0  0  0  0
 22  8  1  0  0  0  0
 22  1  1  0  0  0  0
M  END
>  <CHROM.1>
-169.59371168,59.60398115,56.42161927,17.16480228,-8.79755700,26.36180058
1.98150133,-0.58706156,-2.56814666

>  <Name>
lig.pdb

>  <RI>
0

>  <Rbt.Current_Directory>
/home/itssahil/PROJECTS/Mol_Feturizer/New_Systems/rnas/5bxk

>  <Rbt.Executable>
rbdock ($Id: //depot/dev/client3/rdock/2013.1/src/exe/rbdock.cxx#4 $)

>  <Rbt.Library>
libRbt.so (2013.1, Build901 2013/11/27)

>  <Rbt.Parameter_File>
/export/apps/rDock/src/rDock_2013.1_src/data/scripts/dock_solv.prm

>  <Rbt.Receptor>
prm/pocket_docking_4.prm

>  <SCORE>
-5.53178

>  <SCORE.INTER>
-1.98061

>  <SCORE.INTER.CONST>
1

>  <SCORE.INTER.POLAR>
0

>  <SCORE.INTER.ROT>
3

>  <SCORE.INTER.SOLV>
21.5677

>  <SCORE.INTER.VDW>
-14.1096

>  <SCORE.INTER.norm>
-0.0900275

>  <SCORE.INTRA>
-3.55117

>  <SCORE.INTRA.DIHEDRAL>
-6.49695

>  <SCORE.INTRA.DIHEDRAL.0>
7.18044

>  <SCORE.INTRA.POLAR>
0

>  <SCORE.INTRA.POLAR.0>
0

>  <SCORE.INTRA.REPUL>
0

>  <SCORE.INTRA.REPUL.0>
0

>  <SCORE.INTRA.SOLV>
-0.71937

>  <SCORE.INTRA.SOLV.lig_0>
-72.0615

>  <SCORE.INTRA.VDW>
0.056992

>  <SCORE.INTRA.VDW.0>
-1.54792

>  <SCORE.INTRA.norm>
-0.161417

>  <SCORE.RESTR>
0

>  <SCORE.RESTR.CAVITY>
0

>  <SCORE.RESTR.norm>
0

>  <SCORE.SYSTEM>
0

>  <SCORE.SYSTEM.CONST>
0

>  <SCORE.SYSTEM.DIHEDRAL>
0

>  <SCORE.SYSTEM.SOLV>
0

>  <SCORE.SYSTEM.norm>
0

>  <SCORE.heavy>
22

>  <SCORE.norm>
-0.251444

>  <RMSD>
1.599

$$$$
lig.pdb
 OpenBabel11021811523D
libRbt.so/2013.1/901 2013/11/27
 22 23  0  0  0  0  0  0  0  0999 V2000
   16.2672   -8.4512   26.3690 C   0  0  1  0  0  0  0  0  0  0  0  0
   18.0129   -8.1308   28.1292 C   0  0  1  0  0  0  0  0  0  0  0  0
   18.7018   -6.7687   27.5298 C   0  0  1  0  0  0  0  0  0  0  0  0
   20.1810   -6.6570   28.1579 C   0  0  2  0  0  0  0  0  0  0  0  0
   14.7177   -8.7101   26.0936 C   0  0  1  0  0  0  0  0  0  0  0  0
   14.3106  -10.1665   26.5457 C   0  0  2  0  0  0  0  0  0  0  0  0
   15.1551  -11.2209   25.6752 C   0  0  1  0  0  0  0  0  0  0  0  0
   16.7384  -11.0487   25.9723 C   0  0  1  0  0  0  0  0  0  0  0  0
   17.6355  -12.0389   25.1791 C   0  0  0  0  0  0  0  0  0  0  0  0
   20.0216   -6.5015   29.7493 C   0  0  1  0  0  0  0  0  0  0  0  0
   19.3289   -7.8491   30.2995 C   0  0  0  0  0  0  0  0  0  0  0  0
   17.8834   -8.0330   29.6682 C   0  0  2  0  0  0  0  0  0  0  0  0
   14.8181  -12.6058   26.0216 F   0  0  0  0  0  0  0  0  0  0  0  0
   13.9704   -7.6114   26.8645 N   0  0  0  0  0  0  0  0  0  0  0  0
   17.5316  -11.9236   23.7705 N   0  0  0  0  0  0  0  0  0  0  0  0
   21.3660   -6.4055   30.4009 N   0  0  0  0  0  0  0  0  0  0  0  0
   17.2512   -9.2590   30.1462 N   0  0  0  0  0  0  0  0  0  0  0  0
   16.6948   -8.3182   27.6659 O   0  0  0  0  0  0  0  0  0  0  0  0
   18.8121   -6.9181   26.0459 O   0  0  0  0  0  0  0  0  0  0  0  0
   20.7706   -5.5051   27.6569 O   0  0  0  0  0  0  0  0  0  0  0  0
   13.1647  -10.3039   26.3151 O   0  0  0  0  0  0  0  0  0  0  0  0
   17.1012   -9.5533   25.6398 O   0  0  0  0  0  0  0  0  0  0  0  0
  1  5  1  0  0  0  0
  1 18  1  1  0  0  0
  2 18  1  6  0  0  0
  2  3  1  0  0  0  0
  2 12  1  0  0  0  0
  3 19  1  6  0  0  0
  3  4  1  0  0  0  0
  4 20  1  6  0  0  0
  4 10  1  0  0  0  0
  5  6  1  0  0  0  0
  5 14  1  1  0  0  0
  6 21  1  6  0  0  0
  7 13  1  1  0  0  0
  7  6  1  0  0  0  0
  8  9  1  6  0  0  0
  8  7  1  0  0  0  0
 10 16  1  1  0  0  0
 11 10  1  0  0  0  0
 12 17  1  1  0  0  0
 12 11  1  0  0  0  0
 15  9  1  0  0  0  0
 22  8  1  0  0  0  0
 22  1  1  0  0  0  0
M  END
>  <CHROM.1>
177.74392314,59.50241736,60.39197300,17.25669007,-8.86343622,27.22520615
2.30891274,-0.19998209,-2.30954308

>  <Name>
lig.pdb

>  <RI>
0

>  <Rbt.Current_Directory>
/home/itssahil/PROJECTS/Mol_Feturizer/New_Systems/rnas/5bxk

>  <Rbt.Executable>
rbdock ($Id: //depot/dev/client3/rdock/2013.1/src/exe/rbdock.cxx#4 $)

>  <Rbt.Library>
libRbt.so (2013.1, Build901 2013/11/27)

>  <Rbt.Parameter_File>
/export/apps/rDock/src/rDock_2013.1_src/data/scripts/dock_solv.prm

>  <Rbt.Receptor>
prm/pocket_docking_5.prm

>  <SCORE>
-7.36932

>  <SCORE.INTER>
-3.47767

>  <SCORE.INTER.CONST>
1

>  <SCORE.INTER.POLAR>
0

>  <SCORE.INTER.ROT>
3

>  <SCORE.INTER.SOLV>
14.0997

>  <SCORE.INTER.VDW>
-12.6183

>  <SCORE.INTER.norm>
-0.158076

>  <SCORE.INTRA>
-3.89165

>  <SCORE.INTRA.DIHEDRAL>
-7.01901

>  <SCORE.INTRA.DIHEDRAL.0>
7.18044

>  <SCORE.INTRA.POLAR>
0

>  <SCORE.INTRA.POLAR.0>
0

>  <SCORE.INTRA.REPUL>
0

>  <SCORE.INTRA.REPUL.0>
0

>  <SCORE.INTRA.SOLV>
-0.775376

>  <SCORE.INTRA.SOLV.lig_0>
-72.0615

>  <SCORE.INTRA.VDW>
0.00553986

>  <SCORE.INTRA.VDW.0>
-1.54792

>  <SCORE.INTRA.norm>
-0.176893

>  <SCORE.RESTR>
0

>  <SCORE.RESTR.CAVITY>
0

>  <SCORE.RESTR.norm>
0

>  <SCORE.SYSTEM>
0

>  <SCORE.SYSTEM.CONST>
0

>  <SCORE.SYSTEM.DIHEDRAL>
0

>  <SCORE.SYSTEM.SOLV>
0

>  <SCORE.SYSTEM.norm>
0

>  <SCORE.heavy>
22

>  <SCORE.norm>
-0.334969

>  <RMSD>
1.603

$$$$
lig.pdb
 OpenBabel11021811523D
libRbt.so/2013.1/901 2013/11/27
 22 23  0  0  0  0  0  0  0  0999 V2000
   16.3059   -8.5330   26.3953 C   0  0  1  0  0  0  0  0  0  0  0  0
   18.0585   -8.2638   28.1572 C   0  0  1  0  0  0  0  0  0  0  0  0
   18.7501   -6.8850   27.6003 C   0  0  1  0  0  0  0  0  0  0  0  0
   20.2323   -6.7996   28.2255 C   0  0  2  0  0  0  0  0  0  0  0  0
   14.7518   -8.7611   26.1183 C   0  0  1  0  0  0  0  0  0  0  0  0
   14.3215  -10.2187   26.5445 C   0  0  2  0  0  0  0  0  0  0  0  0
   15.1469  -11.2708   25.6532 C   0  0  1  0  0  0  0  0  0  0  0  0
   16.7333  -11.1302   25.9503 C   0  0  1  0  0  0  0  0  0  0  0  0
   17.6125  -12.1204   25.1373 C   0  0  0  0  0  0  0  0  0  0  0  0
   20.0801   -6.6965   29.8218 C   0  0  1  0  0  0  0  0  0  0  0  0
   19.3846   -8.0591   30.3299 C   0  0  0  0  0  0  0  0  0  0  0  0
   17.9358   -8.2167   29.6991 C   0  0  2  0  0  0  0  0  0  0  0  0
   14.7876  -12.6561   25.9749 F   0  0  0  0  0  0  0  0  0  0  0  0
   14.0241   -7.6646   26.9107 N   0  0  0  0  0  0  0  0  0  0  0  0
   17.5091  -11.9769   23.7313 N   0  0  0  0  0  0  0  0  0  0  0  0
   21.4276   -6.6271   30.4705 N   0  0  0  0  0  0  0  0  0  0  0  0
   17.3009   -9.4555   30.1388 N   0  0  0  0  0  0  0  0  0  0  0  0
   16.7377   -8.4309   27.6936 O   0  0  0  0  0  0  0  0  0  0  0  0
   18.8536   -6.9855   26.1119 O   0  0  0  0  0  0  0  0  0  0  0  0
   20.8242   -5.6339   27.7605 O   0  0  0  0  0  0  0  0  0  0  0  0
   13.1730  -10.3329   26.3137 O   0  0  0  0  0  0  0  0  0  0  0  0
   17.1203   -9.6352   25.6444 O   0  0  0  0  0  0  0  0  0  0  0  0
  1  5  1  0  0  0  0
  1 18  1  1  0  0  0
  2 18  1  6  0  0  0
  2  3  1  0  0  0  0
  2 12  1  0  0  0  0
  3 19  1  6  0  0  0
  3  4  1  0  0  0  0
  4 20  1  6  0  0  0
  4 10  1  0  0  0  0
  5  6  1  0  0  0  0
  5 14  1  1  0  0  0
  6 21  1  6  0  0  0
  7 13  1  1  0  0  0
  7  6  1  0  0  0  0
  8  9  1  6  0  0  0
  8  7  1  0  0  0  0
 10 16  1  1  0  0  0
 11 10  1  0  0  0  0
 12 17  1  1  0  0  0
 12 11  1  0  0  0  0
 15  9  1  0  0  0  0
 22  8  1  0  0  0  0
 22  1  1  0  0  0  0
M  END
>  <CHROM.1>
178.26361572,60.24106329,60.44424299,17.28469151,-8.96961171,27.24662631
2.31530348,-0.18219061,-2.29820863

>  <Name>
lig.pdb

>  <RI>
0

>  <Rbt.Current_Directory>
/home/itssahil/PROJECTS/Mol_Feturizer/New_Systems/rnas/5bxk

>  <Rbt.Executable>
rbdock ($Id: //depot/dev/client3/rdock/2013.1/src/exe/rbdock.cxx#4 $)

>  <Rbt.Library>
libRbt.so (2013.1, Build901 2013/11/27)

>  <Rbt.Parameter_File>
/export/apps/rDock/src/rDock_2013.1_src/data/scripts/dock_solv.prm

>  <Rbt.Receptor>
prm/pocket_docking_8.prm

>  <SCORE>
-7.34203

>  <SCORE.INTER>
-3.44383

>  <SCORE.INTER.CONST>
1

>  <SCORE.INTER.POLAR>
0

>  <SCORE.INTER.ROT>
3

>  <SCORE.INTER.SOLV>
14.4999

>  <SCORE.INTER.VDW>
-12.7292

>  <SCORE.INTER.norm>
-0.156538

>  <SCORE.INTRA>
-3.8982

>  <SCORE.INTRA.DIHEDRAL>
-7.02961

>  <SCORE.INTRA.DIHEDRAL.0>
7.18044

>  <SCORE.INTRA.POLAR>
0

>  <SCORE.INTRA.POLAR.0>
0

>  <SCORE.INTRA.REPUL>
0

>  <SCORE.INTRA.REPUL.0>
0

>  <SCORE.INTRA.SOLV>
-0.764653

>  <SCORE.INTRA.SOLV.lig_0>
-72.0615

>  <SCORE.INTRA.VDW>
-0.00106733

>  <SCORE.INTRA.VDW.0>
-1.54792

>  <SCORE.INTRA.norm>
-0.177191

>  <SCORE.RESTR>
0

>  <SCORE.RESTR.CAVITY>
0

>  <SCORE.RESTR.norm>
0

>  <SCORE.SYSTEM>
0

>  <SCORE.SYSTEM.CONST>
0

>  <SCORE.SYSTEM.DIHEDRAL>
0

>  <SCORE.SYSTEM.SOLV>
0

>  <SCORE.SYSTEM.norm>
0

>  <SCORE.heavy>
22

>  <SCORE.norm>
-0.333729

>  <RMSD>
1.608

$$$$
lig.pdb
 OpenBabel11021811523D
libRbt.so/2013.1/901 2013/11/27
 22 23  0  0  0  0  0  0  0  0999 V2000
   16.0325   -8.0457   26.5670 C   0  0  1  0  0  0  0  0  0  0  0  0
   17.9953   -8.0603   28.1148 C   0  0  1  0  0  0  0  0  0  0  0  0
   18.6523   -6.6460   27.6076 C   0  0  1  0  0  0  0  0  0  0  0  0
   20.1994   -6.6417   28.0567 C   0  0  2  0  0  0  0  0  0  0  0  0
   14.4783   -8.3757   26.4278 C   0  0  1  0  0  0  0  0  0  0  0  0
   14.2258   -9.9265   26.5785 C   0  0  2  0  0  0  0  0  0  0  0  0
   15.0046  -10.6832   25.3939 C   0  0  1  0  0  0  0  0  0  0  0  0
   16.6004  -10.4392   25.5301 C   0  0  1  0  0  0  0  0  0  0  0  0
   17.4380  -11.1458   24.4286 C   0  0  0  0  0  0  0  0  0  0  0  0
   20.2382   -6.6862   29.6625 C   0  0  1  0  0  0  0  0  0  0  0  0
   19.5721   -8.0799   30.1235 C   0  0  0  0  0  0  0  0  0  0  0  0
   18.0557   -8.1560   29.6582 C   0  0  2  0  0  0  0  0  0  0  0  0
   14.8025  -12.1349   25.4505 F   0  0  0  0  0  0  0  0  0  0  0  0
   13.7792   -7.5453   27.5148 N   0  0  0  0  0  0  0  0  0  0  0  0
   17.4460  -12.5602   24.5158 N   0  0  0  0  0  0  0  0  0  0  0  0
   21.6539   -6.6980   30.1494 N   0  0  0  0  0  0  0  0  0  0  0  0
   17.4448   -9.4210   30.0556 N   0  0  0  0  0  0  0  0  0  0  0  0
   16.6254   -8.1635   27.7988 O   0  0  0  0  0  0  0  0  0  0  0  0
   18.5778   -6.6082   26.1145 O   0  0  0  0  0  0  0  0  0  0  0  0
   20.7626   -5.4465   27.6327 O   0  0  0  0  0  0  0  0  0  0  0  0
   13.0693  -10.1121   26.4619 O   0  0  0  0  0  0  0  0  0  0  0  0
   16.8233   -8.8808   25.5092 O   0  0  0  0  0  0  0  0  0  0  0  0
  1  5  1  0  0  0  0
  1 18  1  1  0  0  0
  2 18  1  1  0  0  0
  2  3  1  0  0  0  0
  2 12  1  0  0  0  0
  3 19  1  6  0  0  0
  3  4  1  0  0  0  0
  4 20  1  1  0  0  0
  4 10  1  0  0  0  0
  5  6  1  0  0  0  0
  5 14  1  1  0  0  0
  6 21  1  6  0  0  0
  7 13  1  1  0  0  0
  7  6  1  0  0  0  0
  8  9  1  6  0  0  0
  8  7  1  0  0  0  0
 10 16  1  6  0  0  0
 11 10  1  0  0  0  0
 12 17  1  6  0  0  0
 12 11  1  0  0  0  0
 15  9  1  0  0  0  0
 22  8  1  0  0  0  0
 22  1  1  0  0  0  0
M  END
>  <CHROM.1>
172.70934079,55.34481874,-68.44731370,17.21087739,-8.69590850,27.19387535
2.35566432,-0.08457284,-2.35677428

>  <Name>
lig.pdb

>  <RI>
0

>  <Rbt.Current_Directory>
/home/itssahil/PROJECTS/Mol_Feturizer/New_Systems/rnas/5bxk

>  <Rbt.Executable>
rbdock ($Id: //depot/dev/client3/rdock/2013.1/src/exe/rbdock.cxx#4 $)

>  <Rbt.Library>
libRbt.so (2013.1, Build901 2013/11/27)

>  <Rbt.Parameter_File>
/export/apps/rDock/src/rDock_2013.1_src/data/scripts/dock_solv.prm

>  <Rbt.Receptor>
prm/pocket_docking_6.prm

>  <SCORE>
-8.14661

>  <SCORE.INTER>
-4.5624

>  <SCORE.INTER.CONST>
1

>  <SCORE.INTER.POLAR>
0

>  <SCORE.INTER.ROT>
3

>  <SCORE.INTER.SOLV>
10.9779

>  <SCORE.INTER.VDW>
-12.3009

>  <SCORE.INTER.norm>
-0.207382

>  <SCORE.INTRA>
-3.58421

>  <SCORE.INTRA.DIHEDRAL>
-6.43689

>  <SCORE.INTRA.DIHEDRAL.0>
7.18044

>  <SCORE.INTRA.POLAR>
0

>  <SCORE.INTRA.POLAR.0>
0

>  <SCORE.INTRA.REPUL>
0

>  <SCORE.INTRA.REPUL.0>
0

>  <SCORE.INTRA.SOLV>
-0.947875

>  <SCORE.INTRA.SOLV.lig_0>
-72.0615

>  <SCORE.INTRA.VDW>
0.108174

>  <SCORE.INTRA.VDW.0>
-1.54792

>  <SCORE.INTRA.norm>
-0.162919

>  <SCORE.RESTR>
0

>  <SCORE.RESTR.CAVITY>
0

>  <SCORE.RESTR.norm>
0

>  <SCORE.SYSTEM>
0

>  <SCORE.SYSTEM.CONST>
0

>  <SCORE.SYSTEM.DIHEDRAL>
0

>  <SCORE.SYSTEM.SOLV>
0

>  <SCORE.SYSTEM.norm>
0

>  <SCORE.heavy>
22

>  <SCORE.norm>
-0.3703

>  <RMSD>
1.646

$$$$
lig.pdb
 OpenBabel11021811523D
libRbt.so/2013.1/901 2013/11/27
 22 23  0  0  0  0  0  0  0  0999 V2000
   16.1879   -8.3539   26.7214 C   0  0  1  0  0  0  0  0  0  0  0  0
   18.0355   -8.7752   28.3515 C   0  0  1  0  0  0  0  0  0  0  0  0
   19.0491   -7.6077   27.8048 C   0  0  1  0  0  0  0  0  0  0  0  0
   20.5313   -7.9729   28.3193 C   0  0  2  0  0  0  0  0  0  0  0  0
   14.6133   -8.4788   26.5000 C   0  0  1  0  0  0  0  0  0  0  0  0
   14.1529   -9.9827   26.6331 C   0  0  2  0  0  0  0  0  0  0  0  0
   14.8871  -10.8396   25.4890 C   0  0  1  0  0  0  0  0  0  0  0  0
   16.4918  -10.8054   25.7093 C   0  0  1  0  0  0  0  0  0  0  0  0
   17.2865  -11.6201   24.6513 C   0  0  0  0  0  0  0  0  0  0  0  0
   20.5107   -7.9327   29.9255 C   0  0  1  0  0  0  0  0  0  0  0  0
   19.4950   -9.0806   30.4246 C   0  0  0  0  0  0  0  0  0  0  0  0
   18.0243   -8.7934   29.8988 C   0  0  2  0  0  0  0  0  0  0  0  0
   14.4946  -12.2523   25.5310 F   0  0  0  0  0  0  0  0  0  0  0  0
   13.9727   -7.5597   27.5510 N   0  0  0  0  0  0  0  0  0  0  0  0
   18.6888  -11.6336   24.8548 N   0  0  0  0  0  0  0  0  0  0  0  0
   21.8608   -8.2777   30.4729 N   0  0  0  0  0  0  0  0  0  0  0  0
   17.0969   -9.8350   30.3307 N   0  0  0  0  0  0  0  0  0  0  0  0
   16.6950   -8.5430   27.9822 O   0  0  0  0  0  0  0  0  0  0  0  0
   19.0303   -7.6388   26.3098 O   0  0  0  0  0  0  0  0  0  0  0  0
   21.3955   -6.9881   27.8623 O   0  0  0  0  0  0  0  0  0  0  0  0
   12.9898  -10.0163   26.4556 O   0  0  0  0  0  0  0  0  0  0  0  0
   16.9171   -9.2896   25.7042 O   0  0  0  0  0  0  0  0  0  0  0  0
  1  5  1  0  0  0  0
  1 18  1  1  0  0  0
  2 18  1  1  0  0  0
  2  3  1  0  0  0  0
  2 12  1  0  0  0  0
  3 19  1  6  0  0  0
  3  4  1  0  0  0  0
  4 20  1  6  0  0  0
  4 10  1  0  0  0  0
  5  6  1  0  0  0  0
  5 14  1  1  0  0  0
  6 21  1  6  0  0  0
  7 13  1  1  0  0  0
  7  6  1  0  0  0  0
  8  9  1  6  0  0  0
  8  7  1  0  0  0  0
 10 16  1  1  0  0  0
 11 10  1  0  0  0  0
 12 17  1  6  0  0  0
 12 11  1  0  0  0  0
 15  9  1  0  0  0  0
 22  8  1  0  0  0  0
 22  1  1  0  0  0  0
M  END
>  <CHROM.1>
164.52594574,55.60140540,-178.15271473,17.34121606,-9.22860111,27.37943699
2.51352686,-0.03695555,-2.15514731

>  <Name>
lig.pdb

>  <RI>
0

>  <Rbt.Current_Directory>
/home/itssahil/PROJECTS/Mol_Feturizer/New_Systems/rnas/5bxk

>  <Rbt.Executable>
rbdock ($Id: //depot/dev/client3/rdock/2013.1/src/exe/rbdock.cxx#4 $)

>  <Rbt.Library>
libRbt.so (2013.1, Build901 2013/11/27)

>  <Rbt.Parameter_File>
/export/apps/rDock/src/rDock_2013.1_src/data/scripts/dock_solv.prm

>  <Rbt.Receptor>
prm/pocket_docking_5.prm

>  <SCORE>
-8.27144

>  <SCORE.INTER>
-4.62862

>  <SCORE.INTER.CONST>
1

>  <SCORE.INTER.POLAR>
0

>  <SCORE.INTER.ROT>
3

>  <SCORE.INTER.SOLV>
14.637

>  <SCORE.INTER.VDW>
-13.5648

>  <SCORE.INTER.norm>
-0.210392

>  <SCORE.INTRA>
-3.64282

>  <SCORE.INTRA.DIHEDRAL>
-5.86062

>  <SCORE.INTRA.DIHEDRAL.0>
7.18044

>  <SCORE.INTRA.POLAR>
0

>  <SCORE.INTRA.POLAR.0>
0

>  <SCORE.INTRA.REPUL>
0

>  <SCORE.INTRA.REPUL.0>
0

>  <SCORE.INTRA.SOLV>
-1.64862

>  <SCORE.INTRA.SOLV.lig_0>
-72.0615

>  <SCORE.INTRA.VDW>
0.111799

>  <SCORE.INTRA.VDW.0>
-1.54792

>  <SCORE.INTRA.norm>
-0.165583

>  <SCORE.RESTR>
0

>  <SCORE.RESTR.CAVITY>
0

>  <SCORE.RESTR.norm>
0

>  <SCORE.SYSTEM>
0

>  <SCORE.SYSTEM.CONST>
0

>  <SCORE.SYSTEM.DIHEDRAL>
0

>  <SCORE.SYSTEM.SOLV>
0

>  <SCORE.SYSTEM.norm>
0

>  <SCORE.heavy>
22

>  <SCORE.norm>
-0.375975

>  <RMSD>
2.059

$$$$
lig.pdb
 OpenBabel11021811523D
libRbt.so/2013.1/901 2013/11/27
 22 23  0  0  0  0  0  0  0  0999 V2000
   16.5638   -8.9502   25.1727 C   0  0  1  0  0  0  0  0  0  0  0  0
   17.7338   -7.6589   26.9650 C   0  0  1  0  0  0  0  0  0  0  0  0
   18.7433   -7.9823   28.2163 C   0  0  1  0  0  0  0  0  0  0  0  0
   18.9186   -6.6221   29.0614 C   0  0  2  0  0  0  0  0  0  0  0  0
   15.0307   -8.9471   25.6128 C   0  0  1  0  0  0  0  0  0  0  0  0
   14.6840  -10.2575   26.4214 C   0  0  2  0  0  0  0  0  0  0  0  0
   14.9248  -11.5231   25.4609 C   0  0  1  0  0  0  0  0  0  0  0  0
   16.4866  -11.6154   25.0402 C   0  0  1  0  0  0  0  0  0  0  0  0
   16.8160  -12.8207   24.1165 C   0  0  0  0  0  0  0  0  0  0  0  0
   19.6143   -5.5395   28.0990 C   0  0  1  0  0  0  0  0  0  0  0  0
   18.6022   -5.2591   26.8761 C   0  0  0  0  0  0  0  0  0  0  0  0
   18.3550   -6.5858   26.0390 C   0  0  2  0  0  0  0  0  0  0  0  0
   14.6032  -12.7860   26.1341 F   0  0  0  0  0  0  0  0  0  0  0  0
   14.8386   -7.6648   26.4367 N   0  0  0  0  0  0  0  0  0  0  0  0
   18.1788  -12.9144   23.7395 N   0  0  0  0  0  0  0  0  0  0  0  0
   19.7956   -4.2406   28.8209 N   0  0  0  0  0  0  0  0  0  0  0  0
   17.4269   -6.3492   24.9373 N   0  0  0  0  0  0  0  0  0  0  0  0
   17.5277   -8.7789   26.1341 O   0  0  0  0  0  0  0  0  0  0  0  0
   18.0941   -9.0142   29.0823 O   0  0  0  0  0  0  0  0  0  0  0  0
   19.7736   -6.8867   30.1218 O   0  0  0  0  0  0  0  0  0  0  0  0
   13.5452  -10.2047   26.7140 O   0  0  0  0  0  0  0  0  0  0  0  0
   16.8510  -10.2478   24.3507 O   0  0  0  0  0  0  0  0  0  0  0  0
  1  5  1  0  0  0  0
  1 18  1  1  0  0  0
  2 18  1  6  0  0  0
  2  3  1  0  0  0  0
  2 12  1  0  0  0  0
  3 19  1  1  0  0  0
  3  4  1  0  0  0  0
  4 20  1  1  0  0  0
  4 10  1  0  0  0  0
  5  6  1  0  0  0  0
  5 14  1  1  0  0  0
  6 21  1  6  0  0  0
  7 13  1  1  0  0  0
  7  6  1  0  0  0  0
  8  9  1  6  0  0  0
  8  7  1  0  0  0  0
 10 16  1  1  0  0  0
 11 10  1  0  0  0  0
 12 17  1  6  0  0  0
 12 11  1  0  0  0  0
 15  9  1  0  0  0  0
 22  8  1  0  0  0  0
 22  1  1  0  0  0  0
M  END
>  <CHROM.1>
-62.43636905,166.02114637,179.97880816,17.10256825,-8.84447550,26.54014748
-2.06690449,0.13402842,0.57478013

>  <Name>
lig.pdb

>  <RI>
0

>  <Rbt.Current_Directory>
/home/itssahil/PROJECTS/Mol_Feturizer/New_Systems/rnas/5bxk

>  <Rbt.Executable>
rbdock ($Id: //depot/dev/client3/rdock/2013.1/src/exe/rbdock.cxx#4 $)

>  <Rbt.Library>
libRbt.so (2013.1, Build901 2013/11/27)

>  <Rbt.Parameter_File>
/export/apps/rDock/src/rDock_2013.1_src/data/scripts/dock_solv.prm

>  <Rbt.Receptor>
prm/pocket_docking_7.prm

>  <SCORE>
-7.15574

>  <SCORE.INTER>
-5.94585

>  <SCORE.INTER.CONST>
1

>  <SCORE.INTER.POLAR>
0

>  <SCORE.INTER.ROT>
3

>  <SCORE.INTER.SOLV>
14.8466

>  <SCORE.INTER.VDW>
-14.5128

>  <SCORE.INTER.norm>
-0.270266

>  <SCORE.INTRA>
-1.20989

>  <SCORE.INTRA.DIHEDRAL>
-6.09486

>  <SCORE.INTRA.DIHEDRAL.0>
7.18044

>  <SCORE.INTRA.POLAR>
0

>  <SCORE.INTRA.POLAR.0>
0

>  <SCORE.INTRA.REPUL>
0

>  <SCORE.INTRA.REPUL.0>
0

>  <SCORE.INTRA.SOLV>
2.41971

>  <SCORE.INTRA.SOLV.lig_0>
-72.0615

>  <SCORE.INTRA.VDW>
0.627681

>  <SCORE.INTRA.VDW.0>
-1.54792

>  <SCORE.INTRA.norm>
-0.0549951

>  <SCORE.RESTR>
0

>  <SCORE.RESTR.CAVITY>
0

>  <SCORE.RESTR.norm>
0

>  <SCORE.SYSTEM>
0

>  <SCORE.SYSTEM.CONST>
0

>  <SCORE.SYSTEM.DIHEDRAL>
0

>  <SCORE.SYSTEM.SOLV>
0

>  <SCORE.SYSTEM.norm>
0

>  <SCORE.heavy>
22

>  <SCORE.norm>
-0.325261

>  <RMSD>
2.215

$$$$
lig.pdb
 OpenBabel11021811523D
libRbt.so/2013.1/901 2013/11/27
 22 23  0  0  0  0  0  0  0  0999 V2000
   16.5198   -8.7912   25.2329 C   0  0  1  0  0  0  0  0  0  0  0  0
   17.5407   -7.5137   27.1235 C   0  0  1  0  0  0  0  0  0  0  0  0
   18.3967   -7.8726   28.4755 C   0  0  1  0  0  0  0  0  0  0  0  0
   18.4848   -6.5314   29.3635 C   0  0  2  0  0  0  0  0  0  0  0  0
   14.9685   -8.8901   25.5900 C   0  0  1  0  0  0  0  0  0  0  0  0
   14.6541  -10.2539   26.3197 C   0  0  2  0  0  0  0  0  0  0  0  0
   15.0133  -11.4581   25.3180 C   0  0  1  0  0  0  0  0  0  0  0  0
   16.5973  -11.4474   24.9779 C   0  0  1  0  0  0  0  0  0  0  0  0
   17.0396  -12.5884   24.0204 C   0  0  0  0  0  0  0  0  0  0  0  0
   19.2956   -5.4374   28.5103 C   0  0  1  0  0  0  0  0  0  0  0  0
   18.4335   -5.1220   27.1853 C   0  0  0  0  0  0  0  0  0  0  0  0
   18.2733   -6.4291   26.2978 C   0  0  2  0  0  0  0  0  0  0  0  0
   14.7283  -12.7667   25.9162 F   0  0  0  0  0  0  0  0  0  0  0  0
   14.6638   -7.6603   26.4587 N   0  0  0  0  0  0  0  0  0  0  0  0
   18.4301  -12.6190   23.7487 N   0  0  0  0  0  0  0  0  0  0  0  0
   19.4033   -4.1550   29.2754 N   0  0  0  0  0  0  0  0  0  0  0  0
   17.4802   -6.1608   25.1019 N   0  0  0  0  0  0  0  0  0  0  0  0
   17.4224   -8.6148   26.2511 O   0  0  0  0  0  0  0  0  0  0  0  0
   17.6436   -8.9145   29.2393 O   0  0  0  0  0  0  0  0  0  0  0  0
   19.2098   -6.8261   30.5094 O   0  0  0  0  0  0  0  0  0  0  0  0
   13.5006  -10.2754   26.5530 O   0  0  0  0  0  0  0  0  0  0  0  0
   16.9201  -10.0313   24.3704 O   0  0  0  0  0  0  0  0  0  0  0  0
  1  5  1  0  0  0  0
  1 18  1  1  0  0  0
  2 18  1  6  0  0  0
  2  3  1  0  0  0  0
  2 12  1  0  0  0  0
  3 19  1  1  0  0  0
  3  4  1  0  0  0  0
  4 20  1  1  0  0  0
  4 10  1  0  0  0  0
  5  6  1  0  0  0  0
  5 14  1  1  0  0  0
  6 21  1  6  0  0  0
  7 13  1  1  0  0  0
  7  6  1  0  0  0  0
  8  9  1  6  0  0  0
  8  7  1  0  0  0  0
 10 16  1  1  0  0  0
 11 10  1  0  0  0  0
 12 17  1  6  0  0  0
 12 11  1  0  0  0  0
 15  9  1  0  0  0  0
 22  8  1  0  0  0  0
 22  1  1  0  0  0  0
M  END
>  <CHROM.1>
-63.84869313,161.66947885,-178.00549096,16.99046333,-8.73314914,26.63869448
-2.05581330,0.49552214,0.80584032

>  <Name>
lig.pdb

>  <RI>
0

>  <Rbt.Current_Directory>
/home/itssahil/PROJECTS/Mol_Feturizer/New_Systems/rnas/5bxk

>  <Rbt.Executable>
rbdock ($Id: //depot/dev/client3/rdock/2013.1/src/exe/rbdock.cxx#4 $)

>  <Rbt.Library>
libRbt.so (2013.1, Build901 2013/11/27)

>  <Rbt.Parameter_File>
/export/apps/rDock/src/rDock_2013.1_src/data/scripts/dock_solv.prm

>  <Rbt.Receptor>
prm/pocket_docking_4.prm

>  <SCORE>
-7.09348

>  <SCORE.INTER>
-5.8377

>  <SCORE.INTER.CONST>
1

>  <SCORE.INTER.POLAR>
0

>  <SCORE.INTER.ROT>
3

>  <SCORE.INTER.SOLV>
13.6913

>  <SCORE.INTER.VDW>
-14.0556

>  <SCORE.INTER.norm>
-0.26535

>  <SCORE.INTRA>
-1.25578

>  <SCORE.INTRA.DIHEDRAL>
-5.42543

>  <SCORE.INTRA.DIHEDRAL.0>
7.18044

>  <SCORE.INTRA.POLAR>
0

>  <SCORE.INTRA.POLAR.0>
0

>  <SCORE.INTRA.REPUL>
0

>  <SCORE.INTRA.REPUL.0>
0

>  <SCORE.INTRA.SOLV>
2.00328

>  <SCORE.INTRA.SOLV.lig_0>
-72.0615

>  <SCORE.INTRA.VDW>
0.4553

>  <SCORE.INTRA.VDW.0>
-1.54792

>  <SCORE.INTRA.norm>
-0.0570807

>  <SCORE.RESTR>
0

>  <SCORE.RESTR.CAVITY>
0

>  <SCORE.RESTR.norm>
0

>  <SCORE.SYSTEM>
0

>  <SCORE.SYSTEM.CONST>
0

>  <SCORE.SYSTEM.DIHEDRAL>
0

>  <SCORE.SYSTEM.SOLV>
0

>  <SCORE.SYSTEM.norm>
0

>  <SCORE.heavy>
22

>  <SCORE.norm>
-0.322431

>  <RMSD>
2.267

$$$$
lig.pdb
 OpenBabel11021811523D
libRbt.so/2013.1/901 2013/11/27
 22 23  0  0  0  0  0  0  0  0999 V2000
   16.4944   -8.7646   25.2468 C   0  0  1  0  0  0  0  0  0  0  0  0
   17.5142   -7.4871   27.1378 C   0  0  1  0  0  0  0  0  0  0  0  0
   18.3532   -7.8472   28.5001 C   0  0  1  0  0  0  0  0  0  0  0  0
   18.4504   -6.5011   29.3795 C   0  0  2  0  0  0  0  0  0  0  0  0
   14.9399   -8.8578   25.5918 C   0  0  1  0  0  0  0  0  0  0  0  0
   14.6146  -10.2210   26.3178 C   0  0  2  0  0  0  0  0  0  0  0  0
   14.9768  -11.4257   25.3179 C   0  0  1  0  0  0  0  0  0  0  0  0
   16.5634  -11.4209   24.9899 C   0  0  1  0  0  0  0  0  0  0  0  0
   17.0087  -12.5628   24.0349 C   0  0  0  0  0  0  0  0  0  0  0  0
   19.2829   -5.4236   28.5263 C   0  0  1  0  0  0  0  0  0  0  0  0
   18.4370   -5.1065   27.1913 C   0  0  0  0  0  0  0  0  0  0  0  0
   18.2681   -6.4177   26.3114 C   0  0  2  0  0  0  0  0  0  0  0  0
   14.6821  -12.7337   25.9127 F   0  0  0  0  0  0  0  0  0  0  0  0
   14.6333   -7.6276   26.4592 N   0  0  0  0  0  0  0  0  0  0  0  0
   18.4026  -12.6058   23.7833 N   0  0  0  0  0  0  0  0  0  0  0  0
   19.4000   -4.1373   29.2834 N   0  0  0  0  0  0  0  0  0  0  0  0
   17.4894   -6.1477   25.1064 N   0  0  0  0  0  0  0  0  0  0  0  0
   17.3897   -8.5926   26.2721 O   0  0  0  0  0  0  0  0  0  0  0  0
   17.5798   -8.8741   29.2641 O   0  0  0  0  0  0  0  0  0  0  0  0
   19.1611   -6.7969   30.5340 O   0  0  0  0  0  0  0  0  0  0  0  0
   13.4593  -10.2382   26.5422 O   0  0  0  0  0  0  0  0  0  0  0  0
   16.8964  -10.0055   24.3863 O   0  0  0  0  0  0  0  0  0  0  0  0
  1  5  1  0  0  0  0
  1 18  1  1  0  0  0
  2 18  1  6  0  0  0
  2  3  1  0  0  0  0
  2 12  1  0  0  0  0
  3 19  1  1  0  0  0
  3  4  1  0  0  0  0
  4 20  1  1  0  0  0
  4 10  1  0  0  0  0
  5  6  1  0  0  0  0
  5 14  1  1  0  0  0
  6 21  1  6  0  0  0
  7 13  1  1  0  0  0
  7  6  1  0  0  0  0
  8  9  1  6  0  0  0
  8  7  1  0  0  0  0
 10 16  1  1  0  0  0
 11 10  1  0  0  0  0
 12 17  1  6  0  0  0
 12 11  1  0  0  0  0
 15  9  1  0  0  0  0
 22  8  1  0  0  0  0
 22  1  1  0  0  0  0
M  END
>  <CHROM.1>
-64.53884237,161.67649818,-177.47553947,16.96147560,-8.70724767,26.64996936
-2.05813576,0.49299095,0.80766720

>  <Name>
lig.pdb

>  <RI>
0

>  <Rbt.Current_Directory>
/home/itssahil/PROJECTS/Mol_Feturizer/New_Systems/rnas/5bxk

>  <Rbt.Executable>
rbdock ($Id: //depot/dev/client3/rdock/2013.1/src/exe/rbdock.cxx#4 $)

>  <Rbt.Library>
libRbt.so (2013.1, Build901 2013/11/27)

>  <Rbt.Parameter_File>
/export/apps/rDock/src/rDock_2013.1_src/data/scripts/dock_solv.prm

>  <Rbt.Receptor>
prm/pocket_docking_3.prm

>  <SCORE>
-7.08178

>  <SCORE.INTER>
-5.81525

>  <SCORE.INTER.CONST>
1

>  <SCORE.INTER.POLAR>
0

>  <SCORE.INTER.ROT>
3

>  <SCORE.INTER.SOLV>
13.6497

>  <SCORE.INTER.VDW>
-14.0267

>  <SCORE.INTER.norm>
-0.264329

>  <SCORE.INTRA>
-1.26653

>  <SCORE.INTRA.DIHEDRAL>
-5.39049

>  <SCORE.INTRA.DIHEDRAL.0>
7.18044

>  <SCORE.INTRA.POLAR>
0

>  <SCORE.INTRA.POLAR.0>
0

>  <SCORE.INTRA.REPUL>
0

>  <SCORE.INTRA.REPUL.0>
0

>  <SCORE.INTRA.SOLV>
1.95104

>  <SCORE.INTRA.SOLV.lig_0>
-72.0615

>  <SCORE.INTRA.VDW>
0.45319

>  <SCORE.INTRA.VDW.0>
-1.54792

>  <SCORE.INTRA.norm>
-0.0575697

>  <SCORE.RESTR>
0

>  <SCORE.RESTR.CAVITY>
0

>  <SCORE.RESTR.norm>
0

>  <SCORE.SYSTEM>
0

>  <SCORE.SYSTEM.CONST>
0

>  <SCORE.SYSTEM.DIHEDRAL>
0

>  <SCORE.SYSTEM.SOLV>
0

>  <SCORE.SYSTEM.norm>
0

>  <SCORE.heavy>
22

>  <SCORE.norm>
-0.321899

>  <RMSD>
2.275

$$$$
lig.pdb
 OpenBabel11021811523D
libRbt.so/2013.1/901 2013/11/27
 22 23  0  0  0  0  0  0  0  0999 V2000
   16.6641   -8.6057   26.4613 C   0  0  1  0  0  0  0  0  0  0  0  0
   18.2839   -8.4412   28.3580 C   0  0  1  0  0  0  0  0  0  0  0  0
   19.5940   -8.8191   27.4469 C   0  0  1  0  0  0  0  0  0  0  0  0
   20.8985   -8.2931   28.2322 C   0  0  2  0  0  0  0  0  0  0  0  0
   15.1439   -8.8958   26.0752 C   0  0  1  0  0  0  0  0  0  0  0  0
   14.8630  -10.4490   26.0608 C   0  0  2  0  0  0  0  0  0  0  0  0
   15.7993  -11.1221   24.9417 C   0  0  1  0  0  0  0  0  0  0  0  0
   17.3605  -10.9181   25.3237 C   0  0  1  0  0  0  0  0  0  0  0  0
   18.3434  -11.5490   24.2989 C   0  0  0  0  0  0  0  0  0  0  0  0
   20.7861   -6.6940   28.3424 C   0  0  1  0  0  0  0  0  0  0  0  0
   19.4820   -6.3612   29.2295 C   0  0  0  0  0  0  0  0  0  0  0  0
   18.1694   -6.9066   28.5212 C   0  0  2  0  0  0  0  0  0  0  0  0
   15.5825  -12.5699   24.8498 F   0  0  0  0  0  0  0  0  0  0  0  0
   14.3010   -8.1429   27.1155 N   0  0  0  0  0  0  0  0  0  0  0  0
   18.2811  -12.9626   24.2213 N   0  0  0  0  0  0  0  0  0  0  0  0
   21.9661   -6.1380   29.0772 N   0  0  0  0  0  0  0  0  0  0  0  0
   16.9820   -6.6258   29.3226 N   0  0  0  0  0  0  0  0  0  0  0  0
   17.0731   -8.8323   27.7512 O   0  0  0  0  0  0  0  0  0  0  0  0
   19.6636  -10.3082   27.3283 O   0  0  0  0  0  0  0  0  0  0  0  0
   22.0122   -8.6074   27.4664 O   0  0  0  0  0  0  0  0  0  0  0  0
   13.7342  -10.6041   25.7657 O   0  0  0  0  0  0  0  0  0  0  0  0
   17.5935   -9.3673   25.4624 O   0  0  0  0  0  0  0  0  0  0  0  0
  1  5  1  0  0  0  0
  1 18  1  1  0  0  0
  2 18  1  6  0  0  0
  2  3  1  0  0  0  0
  2 12  1  0  0  0  0
  3 19  1  1  0  0  0
  3  4  1  0  0  0  0
  4 20  1  6  0  0  0
  4 10  1  0  0  0  0
  5  6  1  0  0  0  0
  5 14  1  1  0  0  0
  6 21  1  6  0  0  0
  7 13  1  1  0  0  0
  7  6  1  0  0  0  0
  8  9  1  6  0  0  0
  8  7  1  0  0  0  0
 10 16  1  1  0  0  0
 11 10  1  0  0  0  0
 12 17  1  1  0  0  0
 12 11  1  0  0  0  0
 15  9  1  0  0  0  0
 22  8  1  0  0  0  0
 22  1  1  0  0  0  0
M  END
>  <CHROM.1>
-168.44806993,-48.60513337,-65.36556564,17.81673811,-9.22055107,26.85368675
2.31138900,0.05699782,-2.49183657

>  <Name>
lig.pdb

>  <RI>
0

>  <Rbt.Current_Directory>
/home/itssahil/PROJECTS/Mol_Feturizer/New_Systems/rnas/5bxk

>  <Rbt.Executable>
rbdock ($Id: //depot/dev/client3/rdock/2013.1/src/exe/rbdock.cxx#4 $)

>  <Rbt.Library>
libRbt.so (2013.1, Build901 2013/11/27)

>  <Rbt.Parameter_File>
/export/apps/rDock/src/rDock_2013.1_src/data/scripts/dock_solv.prm

>  <Rbt.Receptor>
prm/pocket_docking_5.prm

>  <SCORE>
-9.16186

>  <SCORE.INTER>
-6.84529

>  <SCORE.INTER.CONST>
1

>  <SCORE.INTER.POLAR>
0

>  <SCORE.INTER.ROT>
3

>  <SCORE.INTER.SOLV>
13.3628

>  <SCORE.INTER.VDW>
-14.6178

>  <SCORE.INTER.norm>
-0.31115

>  <SCORE.INTRA>
-2.33894

>  <SCORE.INTRA.DIHEDRAL>
-5.70584

>  <SCORE.INTRA.DIHEDRAL.0>
7.18044

>  <SCORE.INTRA.POLAR>
0

>  <SCORE.INTRA.POLAR.0>
0

>  <SCORE.INTRA.REPUL>
0

>  <SCORE.INTRA.REPUL.0>
0

>  <SCORE.INTRA.SOLV>
0.999985

>  <SCORE.INTRA.SOLV.lig_0>
-72.0615

>  <SCORE.INTRA.VDW>
0.0139854

>  <SCORE.INTRA.VDW.0>
-1.54792

>  <SCORE.INTRA.norm>
-0.106316

>  <SCORE.RESTR>
0.0223761

>  <SCORE.RESTR.CAVITY>
0.0223761

>  <SCORE.RESTR.norm>
0.00101709

>  <SCORE.SYSTEM>
0

>  <SCORE.SYSTEM.CONST>
0

>  <SCORE.SYSTEM.DIHEDRAL>
0

>  <SCORE.SYSTEM.SOLV>
0

>  <SCORE.SYSTEM.norm>
0

>  <SCORE.heavy>
22

>  <SCORE.norm>
-0.416448

>  <RMSD>
2.292

$$$$
lig.pdb
 OpenBabel11021811523D
libRbt.so/2013.1/901 2013/11/27
 22 23  0  0  0  0  0  0  0  0999 V2000
   16.9669   -8.8468   26.4680 C   0  0  1  0  0  0  0  0  0  0  0  0
   18.5289   -8.6950   28.4137 C   0  0  1  0  0  0  0  0  0  0  0  0
   19.8675   -9.0427   27.5325 C   0  0  1  0  0  0  0  0  0  0  0  0
   21.1442   -8.5180   28.3632 C   0  0  2  0  0  0  0  0  0  0  0  0
   15.4468   -9.0860   26.0483 C   0  0  1  0  0  0  0  0  0  0  0  0
   15.1145  -10.6289   26.0265 C   0  0  2  0  0  0  0  0  0  0  0  0
   16.0523  -11.3329   24.9277 C   0  0  1  0  0  0  0  0  0  0  0  0
   17.6106  -11.1812   25.3443 C   0  0  1  0  0  0  0  0  0  0  0  0
   18.5942  -11.8446   24.3409 C   0  0  0  0  0  0  0  0  0  0  0  0
   21.0118   -6.9224   28.4993 C   0  0  1  0  0  0  0  0  0  0  0  0
   19.6802   -6.6193   29.3557 C   0  0  0  0  0  0  0  0  0  0  0  0
   18.3936   -7.1649   28.6014 C   0  0  2  0  0  0  0  0  0  0  0  0
   15.7892  -12.7726   24.8300 F   0  0  0  0  0  0  0  0  0  0  0  0
   14.6067   -8.3054   27.0703 N   0  0  0  0  0  0  0  0  0  0  0  0
   18.4566  -13.2505   24.2285 N   0  0  0  0  0  0  0  0  0  0  0  0
   22.1651   -6.3681   29.2764 N   0  0  0  0  0  0  0  0  0  0  0  0
   17.1816   -6.9110   29.3745 N   0  0  0  0  0  0  0  0  0  0  0  0
   17.3395   -9.0871   27.7665 O   0  0  0  0  0  0  0  0  0  0  0  0
   19.9563  -10.5286   27.3890 O   0  0  0  0  0  0  0  0  0  0  0  0
   22.2819   -8.8068   27.6231 O   0  0  0  0  0  0  0  0  0  0  0  0
   13.9879  -10.7462   25.7063 O   0  0  0  0  0  0  0  0  0  0  0  0
   17.8922   -9.6391   25.4893 O   0  0  0  0  0  0  0  0  0  0  0  0
  1  5  1  0  0  0  0
  1 18  1  1  0  0  0
  2 18  1  6  0  0  0
  2  3  1  0  0  0  0
  2 12  1  0  0  0  0
  3 19  1  1  0  0  0
  3  4  1  0  0  0  0
  4 20  1  6  0  0  0
  4 10  1  0  0  0  0
  5  6  1  0  0  0  0
  5 14  1  1  0  0  0
  6 21  1  6  0  0  0
  7 13  1  1  0  0  0
  7  6  1  0  0  0  0
  8  9  1  6  0  0  0
  8  7  1  0  0  0  0
 10 16  1  1  0  0  0
 11 10  1  0  0  0  0
 12 17  1  1  0  0  0
 12 11  1  0  0  0  0
 15  9  1  0  0  0  0
 22  8  1  0  0  0  0
 22  1  1  0  0  0  0
M  END
>  <CHROM.1>
-165.95897783,-48.23500600,-63.39970811,18.06623961,-9.45089882,26.89893380
2.29879967,0.08140556,-2.48675650

>  <Name>
lig.pdb

>  <RI>
0

>  <Rbt.Current_Directory>
/home/itssahil/PROJECTS/Mol_Feturizer/New_Systems/rnas/5bxk

>  <Rbt.Executable>
rbdock ($Id: //depot/dev/client3/rdock/2013.1/src/exe/rbdock.cxx#4 $)

>  <Rbt.Library>
libRbt.so (2013.1, Build901 2013/11/27)

>  <Rbt.Parameter_File>
/export/apps/rDock/src/rDock_2013.1_src/data/scripts/dock_solv.prm

>  <Rbt.Receptor>
prm/pocket_docking_3.prm

>  <SCORE>
-9.68386

>  <SCORE.INTER>
-7.52818

>  <SCORE.INTER.CONST>
1

>  <SCORE.INTER.POLAR>
0

>  <SCORE.INTER.ROT>
3

>  <SCORE.INTER.SOLV>
13.553

>  <SCORE.INTER.VDW>
-15.1365

>  <SCORE.INTER.norm>
-0.34219

>  <SCORE.INTRA>
-2.15567

>  <SCORE.INTRA.DIHEDRAL>
-5.44716

>  <SCORE.INTRA.DIHEDRAL.0>
7.18044

>  <SCORE.INTRA.POLAR>
0

>  <SCORE.INTRA.POLAR.0>
0

>  <SCORE.INTRA.REPUL>
0

>  <SCORE.INTRA.REPUL.0>
0

>  <SCORE.INTRA.SOLV>
1.13356

>  <SCORE.INTRA.SOLV.lig_0>
-72.0615

>  <SCORE.INTRA.VDW>
0.00112226

>  <SCORE.INTRA.VDW.0>
-1.54792

>  <SCORE.INTRA.norm>
-0.0979852

>  <SCORE.RESTR>
0

>  <SCORE.RESTR.CAVITY>
0

>  <SCORE.RESTR.norm>
0

>  <SCORE.SYSTEM>
0

>  <SCORE.SYSTEM.CONST>
0

>  <SCORE.SYSTEM.DIHEDRAL>
0

>  <SCORE.SYSTEM.SOLV>
0

>  <SCORE.SYSTEM.norm>
0

>  <SCORE.heavy>
22

>  <SCORE.norm>
-0.440175

>  <RMSD>
2.338

$$$$
lig.pdb
 OpenBabel11021811523D
libRbt.so/2013.1/901 2013/11/27
 22 23  0  0  0  0  0  0  0  0999 V2000
   16.4649   -8.6230   25.3524 C   0  0  1  0  0  0  0  0  0  0  0  0
   17.4123   -7.4005   27.3161 C   0  0  1  0  0  0  0  0  0  0  0  0
   18.1775   -7.8139   28.7064 C   0  0  1  0  0  0  0  0  0  0  0  0
   18.2285   -6.5021   29.6400 C   0  0  2  0  0  0  0  0  0  0  0  0
   14.9334   -8.9441   25.6612 C   0  0  1  0  0  0  0  0  0  0  0  0
   14.7759  -10.4155   26.2103 C   0  0  2  0  0  0  0  0  0  0  0  0
   15.2807  -11.4356   25.0758 C   0  0  1  0  0  0  0  0  0  0  0  0
   16.8548  -11.1997   24.7736 C   0  0  1  0  0  0  0  0  0  0  0  0
   17.4345  -12.1535   23.6926 C   0  0  0  0  0  0  0  0  0  0  0  0
   19.1057   -5.3952   28.8736 C   0  0  1  0  0  0  0  0  0  0  0  0
   18.3321   -5.0259   27.5084 C   0  0  0  0  0  0  0  0  0  0  0  0
   18.2096   -6.3026   26.5719 C   0  0  2  0  0  0  0  0  0  0  0  0
   15.1468  -12.8328   25.5019 F   0  0  0  0  0  0  0  0  0  0  0  0
   14.4806   -7.8760   26.6680 N   0  0  0  0  0  0  0  0  0  0  0  0
   17.4522  -13.5204   24.0662 N   0  0  0  0  0  0  0  0  0  0  0  0
   19.1830   -4.1388   29.6839 N   0  0  0  0  0  0  0  0  0  0  0  0
   17.4962   -5.9854   25.3383 N   0  0  0  0  0  0  0  0  0  0  0  0
   17.3335   -8.4722   26.4038 O   0  0  0  0  0  0  0  0  0  0  0  0
   17.3641   -8.8669   29.3889 O   0  0  0  0  0  0  0  0  0  0  0  0
   18.8767   -6.8431   30.8186 O   0  0  0  0  0  0  0  0  0  0  0  0
   13.6313  -10.5990   26.4143 O   0  0  0  0  0  0  0  0  0  0  0  0
   17.0137   -9.6912   24.3525 O   0  0  0  0  0  0  0  0  0  0  0  0
  1  5  1  0  0  0  0
  1 18  1  1  0  0  0
  2 18  1  6  0  0  0
  2  3  1  0  0  0  0
  2 12  1  0  0  0  0
  3 19  1  1  0  0  0
  3  4  1  0  0  0  0
  4 20  1  1  0  0  0
  4 10  1  0  0  0  0
  5  6  1  0  0  0  0
  5 14  1  1  0  0  0
  6 21  1  6  0  0  0
  7 13  1  1  0  0  0
  7  6  1  0  0  0  0
  8  9  1  6  0  0  0
  8  7  1  0  0  0  0
 10 16  1  1  0  0  0
 11 10  1  0  0  0  0
 12 17  1  6  0  0  0
 12 11  1  0  0  0  0
 15  9  1  0  0  0  0
 22  8  1  0  0  0  0
 22  1  1  0  0  0  0
M  END
>  <CHROM.1>
-71.90484951,159.37140889,-65.62629055,16.93105382,-8.72044874,26.72937532
-2.31448064,1.02475856,1.26776996

>  <Name>
lig.pdb

>  <RI>
0

>  <Rbt.Current_Directory>
/home/itssahil/PROJECTS/Mol_Feturizer/New_Systems/rnas/5bxk

>  <Rbt.Executable>
rbdock ($Id: //depot/dev/client3/rdock/2013.1/src/exe/rbdock.cxx#4 $)

>  <Rbt.Library>
libRbt.so (2013.1, Build901 2013/11/27)

>  <Rbt.Parameter_File>
/export/apps/rDock/src/rDock_2013.1_src/data/scripts/dock_solv.prm

>  <Rbt.Receptor>
prm/pocket_docking_5.prm

>  <SCORE>
-6.62995

>  <SCORE.INTER>
-5.95871

>  <SCORE.INTER.CONST>
1

>  <SCORE.INTER.POLAR>
0

>  <SCORE.INTER.ROT>
3

>  <SCORE.INTER.SOLV>
11.7323

>  <SCORE.INTER.VDW>
-13.4832

>  <SCORE.INTER.norm>
-0.27085

>  <SCORE.INTRA>
-0.671241

>  <SCORE.INTRA.DIHEDRAL>
-4.37718

>  <SCORE.INTRA.DIHEDRAL.0>
7.18044

>  <SCORE.INTRA.POLAR>
0

>  <SCORE.INTRA.POLAR.0>
0

>  <SCORE.INTRA.REPUL>
0

>  <SCORE.INTRA.REPUL.0>
0

>  <SCORE.INTRA.SOLV>
2.35004

>  <SCORE.INTRA.SOLV.lig_0>
-72.0615

>  <SCORE.INTRA.VDW>
0.342328

>  <SCORE.INTRA.VDW.0>
-1.54792

>  <SCORE.INTRA.norm>
-0.030511

>  <SCORE.RESTR>
0

>  <SCORE.RESTR.CAVITY>
0

>  <SCORE.RESTR.norm>
0

>  <SCORE.SYSTEM>
0

>  <SCORE.SYSTEM.CONST>
0

>  <SCORE.SYSTEM.DIHEDRAL>
0

>  <SCORE.SYSTEM.SOLV>
0

>  <SCORE.SYSTEM.norm>
0

>  <SCORE.heavy>
22

>  <SCORE.norm>
-0.301361

>  <RMSD>
2.363

$$$$
lig.pdb
 OpenBabel11021811523D
libRbt.so/2013.1/901 2013/11/27
 22 23  0  0  0  0  0  0  0  0999 V2000
   15.7800  -10.0739   25.2589 C   0  0  1  0  0  0  0  0  0  0  0  0
   17.3150   -8.3293   26.1802 C   0  0  1  0  0  0  0  0  0  0  0  0
   16.3498   -7.0110   26.0403 C   0  0  1  0  0  0  0  0  0  0  0  0
   17.3026   -5.7121   26.0258 C   0  0  2  0  0  0  0  0  0  0  0  0
   14.7523  -11.2247   25.6633 C   0  0  1  0  0  0  0  0  0  0  0  0
   15.5216  -12.5616   25.9983 C   0  0  2  0  0  0  0  0  0  0  0  0
   16.3087  -13.0362   24.6801 C   0  0  1  0  0  0  0  0  0  0  0  0
   17.4193  -11.9319   24.2653 C   0  0  1  0  0  0  0  0  0  0  0  0
   18.2401  -12.3135   23.0024 C   0  0  0  0  0  0  0  0  0  0  0  0
   18.0622   -5.6521   27.4405 C   0  0  1  0  0  0  0  0  0  0  0  0
   18.9870   -6.9680   27.5486 C   0  0  0  0  0  0  0  0  0  0  0  0
   18.0961   -8.2822   27.5153 C   0  0  2  0  0  0  0  0  0  0  0  0
   17.0363  -14.2901   24.9029 F   0  0  0  0  0  0  0  0  0  0  0  0
   13.9604  -10.6722   26.8581 N   0  0  0  0  0  0  0  0  0  0  0  0
   19.0226  -13.4863   23.1447 N   0  0  0  0  0  0  0  0  0  0  0  0
   18.9794   -4.4699   27.4899 N   0  0  0  0  0  0  0  0  0  0  0  0
   18.9232   -9.4824   27.5963 N   0  0  0  0  0  0  0  0  0  0  0  0
   16.5819   -9.5323   26.2316 O   0  0  0  0  0  0  0  0  0  0  0  0
   15.6274   -7.1005   24.7340 O   0  0  0  0  0  0  0  0  0  0  0  0
   16.4929   -4.5912   25.9095 O   0  0  0  0  0  0  0  0  0  0  0  0
   14.7180  -13.3732   26.2827 O   0  0  0  0  0  0  0  0  0  0  0  0
   16.6517  -10.5726   24.0617 O   0  0  0  0  0  0  0  0  0  0  0  0
  1  5  1  0  0  0  0
  1 18  1  1  0  0  0
  2 18  1  1  0  0  0
  2  3  1  0  0  0  0
  2 12  1  0  0  0  0
  3 19  1  6  0  0  0
  3  4  1  0  0  0  0
  4 20  1  1  0  0  0
  4 10  1  0  0  0  0
  5  6  1  0  0  0  0
  5 14  1  1  0  0  0
  6 21  1  6  0  0  0
  7 13  1  1  0  0  0
  7  6  1  0  0  0  0
  8  9  1  6  0  0  0
  8  7  1  0  0  0  0
 10 16  1  6  0  0  0
 11 10  1  0  0  0  0
 12 17  1  6  0  0  0
 12 11  1  0  0  0  0
 15  9  1  0  0  0  0
 22  8  1  0  0  0  0
 22  1  1  0  0  0  0
M  END
>  <CHROM.1>
-163.85571017,63.70635128,-63.04398846,16.89549924,-9.63978036,25.73652671
1.71559388,-0.21910077,-2.83828290

>  <Name>
lig.pdb

>  <RI>
0

>  <Rbt.Current_Directory>
/home/itssahil/PROJECTS/Mol_Feturizer/New_Systems/rnas/5bxk

>  <Rbt.Executable>
rbdock ($Id: //depot/dev/client3/rdock/2013.1/src/exe/rbdock.cxx#4 $)

>  <Rbt.Library>
libRbt.so (2013.1, Build901 2013/11/27)

>  <Rbt.Parameter_File>
/export/apps/rDock/src/rDock_2013.1_src/data/scripts/dock_solv.prm

>  <Rbt.Receptor>
prm/pocket_docking_4.prm

>  <SCORE>
-8.69446

>  <SCORE.INTER>
-5.55717

>  <SCORE.INTER.CONST>
1

>  <SCORE.INTER.POLAR>
0

>  <SCORE.INTER.ROT>
3

>  <SCORE.INTER.SOLV>
19.3183

>  <SCORE.INTER.VDW>
-15.7442

>  <SCORE.INTER.norm>
-0.252599

>  <SCORE.INTRA>
-3.13729

>  <SCORE.INTRA.DIHEDRAL>
-5.77843

>  <SCORE.INTRA.DIHEDRAL.0>
7.18044

>  <SCORE.INTRA.POLAR>
0

>  <SCORE.INTRA.POLAR.0>
0

>  <SCORE.INTRA.REPUL>
0

>  <SCORE.INTRA.REPUL.0>
0

>  <SCORE.INTRA.SOLV>
-0.727967

>  <SCORE.INTRA.SOLV.lig_0>
-72.0615

>  <SCORE.INTRA.VDW>
0.115907

>  <SCORE.INTRA.VDW.0>
-1.54792

>  <SCORE.INTRA.norm>
-0.142604

>  <SCORE.RESTR>
0

>  <SCORE.RESTR.CAVITY>
0

>  <SCORE.RESTR.norm>
0

>  <SCORE.SYSTEM>
0

>  <SCORE.SYSTEM.CONST>
0

>  <SCORE.SYSTEM.DIHEDRAL>
0

>  <SCORE.SYSTEM.SOLV>
0

>  <SCORE.SYSTEM.norm>
0

>  <SCORE.heavy>
22

>  <SCORE.norm>
-0.395203

>  <RMSD>
2.389

$$$$
lig.pdb
 OpenBabel11021811523D
libRbt.so/2013.1/901 2013/11/27
 22 23  0  0  0  0  0  0  0  0999 V2000
   16.3700   -8.5014   25.2426 C   0  0  1  0  0  0  0  0  0  0  0  0
   17.3952   -7.1110   27.0494 C   0  0  1  0  0  0  0  0  0  0  0  0
   18.2828   -7.3779   28.4022 C   0  0  1  0  0  0  0  0  0  0  0  0
   18.3701   -5.9852   29.2071 C   0  0  2  0  0  0  0  0  0  0  0  0
   14.8181   -8.5627   25.6057 C   0  0  1  0  0  0  0  0  0  0  0  0
   14.4928   -9.8708   26.4269 C   0  0  2  0  0  0  0  0  0  0  0  0
   14.8413  -11.1436   25.5099 C   0  0  1  0  0  0  0  0  0  0  0  0
   16.4251  -11.1694   25.1697 C   0  0  1  0  0  0  0  0  0  0  0  0
   16.8574  -12.3768   24.2924 C   0  0  0  0  0  0  0  0  0  0  0  0
   19.1486   -4.9339   28.2740 C   0  0  1  0  0  0  0  0  0  0  0  0
   18.2560   -4.7088   26.9508 C   0  0  0  0  0  0  0  0  0  0  0  0
   18.0961   -6.0683   26.1458 C   0  0  2  0  0  0  0  0  0  0  0  0
   14.5458  -12.4058   26.1961 F   0  0  0  0  0  0  0  0  0  0  0  0
   14.5242   -7.2740   26.3884 N   0  0  0  0  0  0  0  0  0  0  0  0
   18.2507  -12.4518   24.0447 N   0  0  0  0  0  0  0  0  0  0  0  0
   19.2539   -3.6070   28.9593 N   0  0  0  0  0  0  0  0  0  0  0  0
   17.2757   -5.8816   24.9528 N   0  0  0  0  0  0  0  0  0  0  0  0
   17.2746   -8.2634   26.2464 O   0  0  0  0  0  0  0  0  0  0  0  0
   17.5595   -8.3819   29.2418 O   0  0  0  0  0  0  0  0  0  0  0  0
   19.1218   -6.2021   30.3532 O   0  0  0  0  0  0  0  0  0  0  0  0
   13.3393   -9.8667   26.6612 O   0  0  0  0  0  0  0  0  0  0  0  0
   16.7594   -9.8008   24.4669 O   0  0  0  0  0  0  0  0  0  0  0  0
  1  5  1  0  0  0  0
  1 18  1  1  0  0  0
  2 18  1  6  0  0  0
  2  3  1  0  0  0  0
  2 12  1  0  0  0  0
  3 19  1  1  0  0  0
  3  4  1  0  0  0  0
  4 20  1  1  0  0  0
  4 10  1  0  0  0  0
  5  6  1  0  0  0  0
  5 14  1  1  0  0  0
  6 21  1  6  0  0  0
  7 13  1  1  0  0  0
  7  6  1  0  0  0  0
  8  9  1  6  0  0  0
  8  7  1  0  0  0  0
 10 16  1  1  0  0  0
 11 10  1  0  0  0  0
 12 17  1  6  0  0  0
 12 11  1  0  0  0  0
 15  9  1  0  0  0  0
 22  8  1  0  0  0  0
 22  1  1  0  0  0  0
M  END
>  <CHROM.1>
-63.24112070,162.99013755,-176.85980194,16.83792802,-8.34979266,26.64169096
-2.03571033,0.38970918,0.68090870

>  <Name>
lig.pdb

>  <RI>
0

>  <Rbt.Current_Directory>
/home/itssahil/PROJECTS/Mol_Feturizer/New_Systems/rnas/5bxk

>  <Rbt.Executable>
rbdock ($Id: //depot/dev/client3/rdock/2013.1/src/exe/rbdock.cxx#4 $)

>  <Rbt.Library>
libRbt.so (2013.1, Build901 2013/11/27)

>  <Rbt.Parameter_File>
/export/apps/rDock/src/rDock_2013.1_src/data/scripts/dock_solv.prm

>  <Rbt.Receptor>
prm/pocket_docking_4.prm

>  <SCORE>
-7.13095

>  <SCORE.INTER>
-5.87873

>  <SCORE.INTER.CONST>
1

>  <SCORE.INTER.POLAR>
0

>  <SCORE.INTER.ROT>
3

>  <SCORE.INTER.SOLV>
13.8672

>  <SCORE.INTER.VDW>
-14.1416

>  <SCORE.INTER.norm>
-0.267215

>  <SCORE.INTRA>
-1.25222

>  <SCORE.INTRA.DIHEDRAL>
-5.62312

>  <SCORE.INTRA.DIHEDRAL.0>
7.18044

>  <SCORE.INTRA.POLAR>
0

>  <SCORE.INTRA.POLAR.0>
0

>  <SCORE.INTRA.REPUL>
0

>  <SCORE.INTRA.REPUL.0>
0

>  <SCORE.INTRA.SOLV>
2.10096

>  <SCORE.INTRA.SOLV.lig_0>
-72.0615

>  <SCORE.INTRA.VDW>
0.50886

>  <SCORE.INTRA.VDW.0>
-1.54792

>  <SCORE.INTRA.norm>
-0.0569193

>  <SCORE.RESTR>
0

>  <SCORE.RESTR.CAVITY>
0

>  <SCORE.RESTR.norm>
0

>  <SCORE.SYSTEM>
0

>  <SCORE.SYSTEM.CONST>
0

>  <SCORE.SYSTEM.DIHEDRAL>
0

>  <SCORE.SYSTEM.SOLV>
0

>  <SCORE.SYSTEM.norm>
0

>  <SCORE.heavy>
22

>  <SCORE.norm>
-0.324134

>  <RMSD>
2.389

$$$$
lig.pdb
 OpenBabel11021811523D
libRbt.so/2013.1/901 2013/11/27
 22 23  0  0  0  0  0  0  0  0999 V2000
   15.7777  -10.0985   25.2187 C   0  0  1  0  0  0  0  0  0  0  0  0
   17.3205   -8.3617   26.1416 C   0  0  1  0  0  0  0  0  0  0  0  0
   16.3676   -7.0345   26.0008 C   0  0  1  0  0  0  0  0  0  0  0  0
   17.3325   -5.7446   25.9845 C   0  0  2  0  0  0  0  0  0  0  0  0
   14.7468  -11.2479   25.6191 C   0  0  1  0  0  0  0  0  0  0  0  0
   15.5131  -12.5857   25.9573 C   0  0  2  0  0  0  0  0  0  0  0  0
   16.3049  -13.0615   24.6424 C   0  0  1  0  0  0  0  0  0  0  0  0
   17.4186  -11.9587   24.2320 C   0  0  1  0  0  0  0  0  0  0  0  0
   18.2441  -12.3414   22.9724 C   0  0  0  0  0  0  0  0  0  0  0  0
   18.0933   -5.6903   27.3988 C   0  0  1  0  0  0  0  0  0  0  0  0
   19.0058   -7.0146   27.5079 C   0  0  0  0  0  0  0  0  0  0  0  0
   18.1026   -8.3205   27.4763 C   0  0  2  0  0  0  0  0  0  0  0  0
   17.0301  -14.3163   24.8683 F   0  0  0  0  0  0  0  0  0  0  0  0
   13.9508  -10.6943   26.8106 N   0  0  0  0  0  0  0  0  0  0  0  0
   19.0000  -13.5324   23.1073 N   0  0  0  0  0  0  0  0  0  0  0  0
   19.0215   -4.5166   27.4466 N   0  0  0  0  0  0  0  0  0  0  0  0
   18.9186   -9.5283   27.5581 N   0  0  0  0  0  0  0  0  0  0  0  0
   16.5763   -9.5578   26.1946 O   0  0  0  0  0  0  0  0  0  0  0  0
   15.6438   -7.1187   24.6949 O   0  0  0  0  0  0  0  0  0  0  0  0
   16.5333   -4.6164   25.8675 O   0  0  0  0  0  0  0  0  0  0  0  0
   14.7074  -13.3963   26.2386 O   0  0  0  0  0  0  0  0  0  0  0  0
   16.6536  -10.5984   24.0251 O   0  0  0  0  0  0  0  0  0  0  0  0
  1  5  1  0  0  0  0
  1 18  1  1  0  0  0
  2 18  1  1  0  0  0
  2  3  1  0  0  0  0
  2 12  1  0  0  0  0
  3 19  1  6  0  0  0
  3  4  1  0  0  0  0
  4 20  1  1  0  0  0
  4 10  1  0  0  0  0
  5  6  1  0  0  0  0
  5 14  1  1  0  0  0
  6 21  1  6  0  0  0
  7 13  1  1  0  0  0
  7  6  1  0  0  0  0
  8  9  1  6  0  0  0
  8  7  1  0  0  0  0
 10 16  1  6  0  0  0
 11 10  1  0  0  0  0
 12 17  1  6  0  0  0
 12 11  1  0  0  0  0
 15  9  1  0  0  0  0
 22  8  1  0  0  0  0
 22  1  1  0  0  0  0
M  END
>  <CHROM.1>
-164.47655080,64.29886268,-61.63114543,16.90145364,-9.66993383,25.69720477
1.72066813,-0.21514305,-2.83842450

>  <Name>
lig.pdb

>  <RI>
0

>  <Rbt.Current_Directory>
/home/itssahil/PROJECTS/Mol_Feturizer/New_Systems/rnas/5bxk

>  <Rbt.Executable>
rbdock ($Id: //depot/dev/client3/rdock/2013.1/src/exe/rbdock.cxx#4 $)

>  <Rbt.Library>
libRbt.so (2013.1, Build901 2013/11/27)

>  <Rbt.Parameter_File>
/export/apps/rDock/src/rDock_2013.1_src/data/scripts/dock_solv.prm

>  <Rbt.Receptor>
prm/pocket_docking_5.prm

>  <SCORE>
-8.66312

>  <SCORE.INTER>
-5.49858

>  <SCORE.INTER.CONST>
1

>  <SCORE.INTER.POLAR>
0

>  <SCORE.INTER.ROT>
3

>  <SCORE.INTER.SOLV>
19.6168

>  <SCORE.INTER.VDW>
-15.8046

>  <SCORE.INTER.norm>
-0.249936

>  <SCORE.INTRA>
-3.16453

>  <SCORE.INTRA.DIHEDRAL>
-5.8618

>  <SCORE.INTRA.DIHEDRAL.0>
7.18044

>  <SCORE.INTRA.POLAR>
0

>  <SCORE.INTRA.POLAR.0>
0

>  <SCORE.INTRA.REPUL>
0

>  <SCORE.INTRA.REPUL.0>
0

>  <SCORE.INTRA.SOLV>
-0.708805

>  <SCORE.INTRA.SOLV.lig_0>
-72.0615

>  <SCORE.INTRA.VDW>
0.120768

>  <SCORE.INTRA.VDW.0>
-1.54792

>  <SCORE.INTRA.norm>
-0.143842

>  <SCORE.RESTR>
0

>  <SCORE.RESTR.CAVITY>
0

>  <SCORE.RESTR.norm>
0

>  <SCORE.SYSTEM>
0

>  <SCORE.SYSTEM.CONST>
0

>  <SCORE.SYSTEM.DIHEDRAL>
0

>  <SCORE.SYSTEM.SOLV>
0

>  <SCORE.SYSTEM.norm>
0

>  <SCORE.heavy>
22

>  <SCORE.norm>
-0.393778

>  <RMSD>
2.402

$$$$
lig.pdb
 OpenBabel11021811523D
libRbt.so/2013.1/901 2013/11/27
 22 23  0  0  0  0  0  0  0  0999 V2000
   17.1817   -9.6765   24.7552 C   0  0  1  0  0  0  0  0  0  0  0  0
   18.4226   -8.4824   26.5671 C   0  0  1  0  0  0  0  0  0  0  0  0
   19.8545   -8.6134   27.3556 C   0  0  1  0  0  0  0  0  0  0  0  0
   19.9045   -7.4478   28.4664 C   0  0  2  0  0  0  0  0  0  0  0  0
   15.8016  -10.0656   25.4537 C   0  0  1  0  0  0  0  0  0  0  0  0
   15.8776  -11.5223   26.0568 C   0  0  2  0  0  0  0  0  0  0  0  0
   16.1363  -12.5552   24.8533 C   0  0  1  0  0  0  0  0  0  0  0  0
   17.5644  -12.2487   24.1521 C   0  0  1  0  0  0  0  0  0  0  0  0
   17.9051  -13.2097   22.9795 C   0  0  0  0  0  0  0  0  0  0  0  0
   19.8638   -6.0395   27.6937 C   0  0  1  0  0  0  0  0  0  0  0  0
   18.4523   -5.9534   26.9200 C   0  0  0  0  0  0  0  0  0  0  0  0
   18.3313   -7.1165   25.8455 C   0  0  2  0  0  0  0  0  0  0  0  0
   16.1993  -13.9410   25.3298 F   0  0  0  0  0  0  0  0  0  0  0  0
   15.5577   -8.9866   26.5195 N   0  0  0  0  0  0  0  0  0  0  0  0
   19.2176  -13.0642   22.4656 N   0  0  0  0  0  0  0  0  0  0  0  0
   19.8940   -4.9070   28.6723 N   0  0  0  0  0  0  0  0  0  0  0  0
   17.0499   -7.0596   25.1485 N   0  0  0  0  0  0  0  0  0  0  0  0
   18.2791   -9.4425   25.5449 O   0  0  0  0  0  0  0  0  0  0  0  0
   19.8876   -9.9421   28.0411 O   0  0  0  0  0  0  0  0  0  0  0  0
   21.1148   -7.5505   29.1373 O   0  0  0  0  0  0  0  0  0  0  0  0
   14.8360  -11.7577   26.5518 O   0  0  0  0  0  0  0  0  0  0  0  0
   17.5201  -10.7502   23.6715 O   0  0  0  0  0  0  0  0  0  0  0  0
  1  5  1  0  0  0  0
  1 18  1  1  0  0  0
  2 18  1  6  0  0  0
  2  3  1  0  0  0  0
  2 12  1  0  0  0  0
  3 19  1  1  0  0  0
  3  4  1  0  0  0  0
  4 20  1  6  0  0  0
  4 10  1  0  0  0  0
  5  6  1  0  0  0  0
  5 14  1  1  0  0  0
  6 21  1  6  0  0  0
  7 13  1  1  0  0  0
  7  6  1  0  0  0  0
  8  9  1  6  0  0  0
  8  7  1  0  0  0  0
 10 16  1  1  0  0  0
 11 10  1  0  0  0  0
 12 17  1  1  0  0  0
 12 11  1  0  0  0  0
 15  9  1  0  0  0  0
 22  8  1  0  0  0  0
 22  1  1  0  0  0  0
M  END
>  <CHROM.1>
-58.65387060,175.20022843,-172.49276707,17.93375745,-9.64659105,26.01225240
1.96603529,0.06538076,-2.63296207

>  <Name>
lig.pdb

>  <RI>
0

>  <Rbt.Current_Directory>
/home/itssahil/PROJECTS/Mol_Feturizer/New_Systems/rnas/5bxk

>  <Rbt.Executable>
rbdock ($Id: //depot/dev/client3/rdock/2013.1/src/exe/rbdock.cxx#4 $)

>  <Rbt.Library>
libRbt.so (2013.1, Build901 2013/11/27)

>  <Rbt.Parameter_File>
/export/apps/rDock/src/rDock_2013.1_src/data/scripts/dock_solv.prm

>  <Rbt.Receptor>
prm/pocket_docking_4.prm

>  <SCORE>
-7.61565

>  <SCORE.INTER>
-7.24309

>  <SCORE.INTER.CONST>
1

>  <SCORE.INTER.POLAR>
0

>  <SCORE.INTER.ROT>
3

>  <SCORE.INTER.SOLV>
17.2634

>  <SCORE.INTER.VDW>
-16.1832

>  <SCORE.INTER.norm>
-0.329231

>  <SCORE.INTRA>
-0.372561

>  <SCORE.INTRA.DIHEDRAL>
-6.72055

>  <SCORE.INTRA.DIHEDRAL.0>
7.18044

>  <SCORE.INTRA.POLAR>
0

>  <SCORE.INTRA.POLAR.0>
0

>  <SCORE.INTRA.REPUL>
0

>  <SCORE.INTRA.REPUL.0>
0

>  <SCORE.INTRA.SOLV>
3.386

>  <SCORE.INTRA.SOLV.lig_0>
-72.0615

>  <SCORE.INTRA.VDW>
1.29471

>  <SCORE.INTRA.VDW.0>
-1.54792

>  <SCORE.INTRA.norm>
-0.0169346

>  <SCORE.RESTR>
0

>  <SCORE.RESTR.CAVITY>
0

>  <SCORE.RESTR.norm>
0

>  <SCORE.SYSTEM>
0

>  <SCORE.SYSTEM.CONST>
0

>  <SCORE.SYSTEM.DIHEDRAL>
0

>  <SCORE.SYSTEM.SOLV>
0

>  <SCORE.SYSTEM.norm>
0

>  <SCORE.heavy>
22

>  <SCORE.norm>
-0.346166

>  <RMSD>
2.405

$$$$
lig.pdb
 OpenBabel11021811523D
libRbt.so/2013.1/901 2013/11/27
 22 23  0  0  0  0  0  0  0  0999 V2000
   16.4600   -8.8673   24.9960 C   0  0  1  0  0  0  0  0  0  0  0  0
   17.7313   -7.5741   26.7164 C   0  0  1  0  0  0  0  0  0  0  0  0
   18.9780   -7.8398   27.7481 C   0  0  1  0  0  0  0  0  0  0  0  0
   19.1167   -6.5375   28.6861 C   0  0  2  0  0  0  0  0  0  0  0  0
   14.9904   -8.8038   25.6127 C   0  0  1  0  0  0  0  0  0  0  0  0
   14.7295  -10.0458   26.5511 C   0  0  2  0  0  0  0  0  0  0  0  0
   14.8414  -11.3817   25.6650 C   0  0  1  0  0  0  0  0  0  0  0  0
   16.3410  -11.5332   25.0707 C   0  0  1  0  0  0  0  0  0  0  0  0
   16.5460  -12.8079   24.2062 C   0  0  0  0  0  0  0  0  0  0  0  0
   19.4836   -5.2935   27.7375 C   0  0  1  0  0  0  0  0  0  0  0  0
   18.2450   -5.0726   26.7297 C   0  0  0  0  0  0  0  0  0  0  0  0
   18.0331   -6.3531   25.8147 C   0  0  2  0  0  0  0  0  0  0  0  0
   14.5899  -12.5865   26.4630 F   0  0  0  0  0  0  0  0  0  0  0  0
   14.9106   -7.4622   26.3565 N   0  0  0  0  0  0  0  0  0  0  0  0
   16.4975  -14.0231   24.9337 N   0  0  0  0  0  0  0  0  0  0  0  0
   19.6147   -4.0413   28.5475 N   0  0  0  0  0  0  0  0  0  0  0  0
   16.9034   -6.1723   24.9078 N   0  0  0  0  0  0  0  0  0  0  0  0
   17.5332   -8.6452   25.8215 O   0  0  0  0  0  0  0  0  0  0  0  0
   18.6329   -9.0197   28.5996 O   0  0  0  0  0  0  0  0  0  0  0  0
   20.1715   -6.7536   29.5615 O   0  0  0  0  0  0  0  0  0  0  0  0
   13.6342   -9.9508   26.9715 O   0  0  0  0  0  0  0  0  0  0  0  0
   16.6342  -10.2260   24.2439 O   0  0  0  0  0  0  0  0  0  0  0  0
  1  5  1  0  0  0  0
  1 18  1  1  0  0  0
  2 18  1  6  0  0  0
  2  3  1  0  0  0  0
  2 12  1  0  0  0  0
  3 19  1  1  0  0  0
  3  4  1  0  0  0  0
  4 20  1  1  0  0  0
  4 10  1  0  0  0  0
  5  6  1  0  0  0  0
  5 14  1  1  0  0  0
  6 21  1  6  0  0  0
  7 13  1  1  0  0  0
  7  6  1  0  0  0  0
  8  9  1  6  0  0  0
  8  7  1  0  0  0  0
 10 16  1  1  0  0  0
 11 10  1  0  0  0  0
 12 17  1  6  0  0  0
 12 11  1  0  0  0  0
 15  9  1  0  0  0  0
 22  8  1  0  0  0  0
 22  1  1  0  0  0  0
M  END
>  <CHROM.1>
-50.20480192,167.55543759,-68.43584209,16.99727781,-8.75937089,26.47035050
2.21016835,0.61092957,3.12980614

>  <Name>
lig.pdb

>  <RI>
0

>  <Rbt.Current_Directory>
/home/itssahil/PROJECTS/Mol_Feturizer/New_Systems/rnas/5bxk

>  <Rbt.Executable>
rbdock ($Id: //depot/dev/client3/rdock/2013.1/src/exe/rbdock.cxx#4 $)

>  <Rbt.Library>
libRbt.so (2013.1, Build901 2013/11/27)

>  <Rbt.Parameter_File>
/export/apps/rDock/src/rDock_2013.1_src/data/scripts/dock_solv.prm

>  <Rbt.Receptor>
prm/pocket_docking_2.prm

>  <SCORE>
-6.21036

>  <SCORE.INTER>
-6.42487

>  <SCORE.INTER.CONST>
1

>  <SCORE.INTER.POLAR>
0

>  <SCORE.INTER.ROT>
3

>  <SCORE.INTER.SOLV>
14.3401

>  <SCORE.INTER.VDW>
-14.6633

>  <SCORE.INTER.norm>
-0.292039

>  <SCORE.INTRA>
0.214504

>  <SCORE.INTRA.DIHEDRAL>
-5.60997

>  <SCORE.INTRA.DIHEDRAL.0>
7.18044

>  <SCORE.INTRA.POLAR>
0

>  <SCORE.INTRA.POLAR.0>
0

>  <SCORE.INTRA.REPUL>
0

>  <SCORE.INTRA.REPUL.0>
0

>  <SCORE.INTRA.SOLV>
4.32119

>  <SCORE.INTRA.SOLV.lig_0>
-72.0615

>  <SCORE.INTRA.VDW>
0.858897

>  <SCORE.INTRA.VDW.0>
-1.54792

>  <SCORE.INTRA.norm>
0.00975019

>  <SCORE.RESTR>
0

>  <SCORE.RESTR.CAVITY>
0

>  <SCORE.RESTR.norm>
0

>  <SCORE.SYSTEM>
0

>  <SCORE.SYSTEM.CONST>
0

>  <SCORE.SYSTEM.DIHEDRAL>
0

>  <SCORE.SYSTEM.SOLV>
0

>  <SCORE.SYSTEM.norm>
0

>  <SCORE.heavy>
22

>  <SCORE.norm>
-0.282289

>  <RMSD>
2.421

$$$$
lig.pdb
 OpenBabel11021811523D
libRbt.so/2013.1/901 2013/11/27
 22 23  0  0  0  0  0  0  0  0999 V2000
   17.3155   -8.7915   26.2960 C   0  0  1  0  0  0  0  0  0  0  0  0
   18.8423   -8.6861   28.2724 C   0  0  1  0  0  0  0  0  0  0  0  0
   20.1726   -9.2323   27.4844 C   0  0  1  0  0  0  0  0  0  0  0  0
   21.4626   -8.7574   28.3244 C   0  0  2  0  0  0  0  0  0  0  0  0
   15.7933   -8.9509   25.8471 C   0  0  1  0  0  0  0  0  0  0  0  0
   15.3705  -10.4716   25.8533 C   0  0  2  0  0  0  0  0  0  0  0  0
   16.2882  -11.2562   24.7928 C   0  0  1  0  0  0  0  0  0  0  0  0
   17.8434  -11.1864   25.2413 C   0  0  1  0  0  0  0  0  0  0  0  0
   18.8073  -11.9308   24.2763 C   0  0  0  0  0  0  0  0  0  0  0  0
   21.4793   -7.1506   28.3201 C   0  0  1  0  0  0  0  0  0  0  0  0
   20.1526   -6.6515   29.0876 C   0  0  0  0  0  0  0  0  0  0  0  0
   18.8480   -7.1395   28.3249 C   0  0  2  0  0  0  0  0  0  0  0  0
   15.9423  -12.6798   24.7222 F   0  0  0  0  0  0  0  0  0  0  0  0
   14.9792   -8.0975   26.8313 N   0  0  0  0  0  0  0  0  0  0  0  0
   18.5606  -13.3213   24.1594 N   0  0  0  0  0  0  0  0  0  0  0  0
   22.6513   -6.6395   29.0989 N   0  0  0  0  0  0  0  0  0  0  0  0
   17.6385   -6.7075   29.0189 N   0  0  0  0  0  0  0  0  0  0  0  0
   17.6452   -9.0216   27.6078 O   0  0  0  0  0  0  0  0  0  0  0  0
   20.1232  -10.7269   27.4700 O   0  0  0  0  0  0  0  0  0  0  0  0
   22.5935   -9.2142   27.6628 O   0  0  0  0  0  0  0  0  0  0  0  0
   14.2461  -10.5302   25.5102 O   0  0  0  0  0  0  0  0  0  0  0  0
   18.2130   -9.6604   25.3572 O   0  0  0  0  0  0  0  0  0  0  0  0
  1  5  1  0  0  0  0
  1 18  1  1  0  0  0
  2 18  1  6  0  0  0
  2  3  1  0  0  0  0
  2 12  1  0  0  0  0
  3 19  1  1  0  0  0
  3  4  1  0  0  0  0
  4 20  1  6  0  0  0
  4 10  1  0  0  0  0
  5  6  1  0  0  0  0
  5 14  1  1  0  0  0
  6 21  1  6  0  0  0
  7 13  1  1  0  0  0
  7  6  1  0  0  0  0
  8  9  1  6  0  0  0
  8  7  1  0  0  0  0
 10 16  1  1  0  0  0
 11 10  1  0  0  0  0
 12 17  1  1  0  0  0
 12 11  1  0  0  0  0
 15  9  1  0  0  0  0
 22  8  1  0  0  0  0
 22  1  1  0  0  0  0
M  END
>  <CHROM.1>
-166.05153236,-52.42439243,-61.42025899,18.37556857,-9.47360633,26.76017271
2.34961099,0.15483602,-2.53080494

>  <Name>
lig.pdb

>  <RI>
0

>  <Rbt.Current_Directory>
/home/itssahil/PROJECTS/Mol_Feturizer/New_Systems/rnas/5bxk

>  <Rbt.Executable>
rbdock ($Id: //depot/dev/client3/rdock/2013.1/src/exe/rbdock.cxx#4 $)

>  <Rbt.Library>
libRbt.so (2013.1, Build901 2013/11/27)

>  <Rbt.Parameter_File>
/export/apps/rDock/src/rDock_2013.1_src/data/scripts/dock_solv.prm

>  <Rbt.Receptor>
prm/pocket_docking_4.prm

>  <SCORE>
-9.9188

>  <SCORE.INTER>
-7.58557

>  <SCORE.INTER.CONST>
1

>  <SCORE.INTER.POLAR>
0

>  <SCORE.INTER.ROT>
3

>  <SCORE.INTER.SOLV>
15.161

>  <SCORE.INTER.VDW>
-15.7107

>  <SCORE.INTER.norm>
-0.344799

>  <SCORE.INTRA>
-2.33322

>  <SCORE.INTRA.DIHEDRAL>
-5.8746

>  <SCORE.INTRA.DIHEDRAL.0>
7.18044

>  <SCORE.INTRA.POLAR>
0

>  <SCORE.INTRA.POLAR.0>
0

>  <SCORE.INTRA.REPUL>
0

>  <SCORE.INTRA.REPUL.0>
0

>  <SCORE.INTRA.SOLV>
1.189

>  <SCORE.INTRA.SOLV.lig_0>
-72.0615

>  <SCORE.INTRA.VDW>
0.00957702

>  <SCORE.INTRA.VDW.0>
-1.54792

>  <SCORE.INTRA.norm>
-0.106056

>  <SCORE.RESTR>
0

>  <SCORE.RESTR.CAVITY>
0

>  <SCORE.RESTR.norm>
0

>  <SCORE.SYSTEM>
0

>  <SCORE.SYSTEM.CONST>
0

>  <SCORE.SYSTEM.DIHEDRAL>
0

>  <SCORE.SYSTEM.SOLV>
0

>  <SCORE.SYSTEM.norm>
0

>  <SCORE.heavy>
22

>  <SCORE.norm>
-0.450854

>  <RMSD>
2.439

$$$$
lig.pdb
 OpenBabel11021811523D
libRbt.so/2013.1/901 2013/11/27
 22 23  0  0  0  0  0  0  0  0999 V2000
   16.6865   -9.0700   24.7903 C   0  0  1  0  0  0  0  0  0  0  0  0
   17.7062   -7.6384   26.5677 C   0  0  1  0  0  0  0  0  0  0  0  0
   18.9632   -7.7302   27.6170 C   0  0  1  0  0  0  0  0  0  0  0  0
   18.8751   -6.4508   28.5919 C   0  0  2  0  0  0  0  0  0  0  0  0
   15.3278   -9.6304   25.4100 C   0  0  1  0  0  0  0  0  0  0  0  0
   15.5508  -11.0666   26.0256 C   0  0  2  0  0  0  0  0  0  0  0  0
   16.0072  -12.0575   24.8457 C   0  0  1  0  0  0  0  0  0  0  0  0
   17.4239  -11.5730   24.2268 C   0  0  1  0  0  0  0  0  0  0  0  0
   17.9506  -12.4822   23.0820 C   0  0  0  0  0  0  0  0  0  0  0  0
   19.0509   -5.1365   27.6842 C   0  0  1  0  0  0  0  0  0  0  0  0
   17.8089   -5.0884   26.6579 C   0  0  0  0  0  0  0  0  0  0  0  0
   17.8209   -6.3588   25.7050 C   0  0  2  0  0  0  0  0  0  0  0  0
   16.2159  -13.4248   25.3339 F   0  0  0  0  0  0  0  0  0  0  0  0
   14.8883   -8.5918   26.4530 N   0  0  0  0  0  0  0  0  0  0  0  0
   18.2883  -13.7975   23.4871 N   0  0  0  0  0  0  0  0  0  0  0  0
   18.9653   -3.9039   28.5297 N   0  0  0  0  0  0  0  0  0  0  0  0
   16.6912   -6.3356   24.7807 N   0  0  0  0  0  0  0  0  0  0  0  0
   17.6977   -8.7005   25.6409 O   0  0  0  0  0  0  0  0  0  0  0  0
   18.7999   -8.9748   28.4298 O   0  0  0  0  0  0  0  0  0  0  0  0
   19.9371   -6.5199   29.4823 O   0  0  0  0  0  0  0  0  0  0  0  0
   14.5200  -11.4316   26.4608 O   0  0  0  0  0  0  0  0  0  0  0  0
   17.2199  -10.0915   23.7349 O   0  0  0  0  0  0  0  0  0  0  0  0
  1  5  1  0  0  0  0
  1 18  1  1  0  0  0
  2 18  1  6  0  0  0
  2  3  1  0  0  0  0
  2 12  1  0  0  0  0
  3 19  1  1  0  0  0
  3  4  1  0  0  0  0
  4 20  1  1  0  0  0
  4 10  1  0  0  0  0
  5  6  1  0  0  0  0
  5 14  1  1  0  0  0
  6 21  1  6  0  0  0
  7 13  1  1  0  0  0
  7  6  1  0  0  0  0
  8  9  1  6  0  0  0
  8  7  1  0  0  0  0
 10 16  1  1  0  0  0
 11 10  1  0  0  0  0
 12 17  1  6  0  0  0
 12 11  1  0  0  0  0
 15  9  1  0  0  0  0
 22  8  1  0  0  0  0
 22  1  1  0  0  0  0
M  END
>  <CHROM.1>
-65.94699847,167.40167771,-65.55561991,17.37243794,-8.99842698,26.07720364
1.92562842,0.64080698,-2.88721571

>  <Name>
lig.pdb

>  <RI>
0

>  <Rbt.Current_Directory>
/home/itssahil/PROJECTS/Mol_Feturizer/New_Systems/rnas/5bxk

>  <Rbt.Executable>
rbdock ($Id: //depot/dev/client3/rdock/2013.1/src/exe/rbdock.cxx#4 $)

>  <Rbt.Library>
libRbt.so (2013.1, Build901 2013/11/27)

>  <Rbt.Parameter_File>
/export/apps/rDock/src/rDock_2013.1_src/data/scripts/dock_solv.prm

>  <Rbt.Receptor>
prm/pocket_docking_3.prm

>  <SCORE>
-7.20834

>  <SCORE.INTER>
-6.43469

>  <SCORE.INTER.CONST>
1

>  <SCORE.INTER.POLAR>
0

>  <SCORE.INTER.ROT>
3

>  <SCORE.INTER.SOLV>
13.6424

>  <SCORE.INTER.VDW>
-14.4372

>  <SCORE.INTER.norm>
-0.292486

>  <SCORE.INTRA>
-0.773648

>  <SCORE.INTRA.DIHEDRAL>
-6.01339

>  <SCORE.INTRA.DIHEDRAL.0>
7.18044

>  <SCORE.INTRA.POLAR>
0

>  <SCORE.INTRA.POLAR.0>
0

>  <SCORE.INTRA.REPUL>
0

>  <SCORE.INTRA.REPUL.0>
0

>  <SCORE.INTRA.SOLV>
3.1099

>  <SCORE.INTRA.SOLV.lig_0>
-72.0615

>  <SCORE.INTRA.VDW>
0.678099

>  <SCORE.INTRA.VDW.0>
-1.54792

>  <SCORE.INTRA.norm>
-0.0351658

>  <SCORE.RESTR>
0

>  <SCORE.RESTR.CAVITY>
0

>  <SCORE.RESTR.norm>
0

>  <SCORE.SYSTEM>
0

>  <SCORE.SYSTEM.CONST>
0

>  <SCORE.SYSTEM.DIHEDRAL>
0

>  <SCORE.SYSTEM.SOLV>
0

>  <SCORE.SYSTEM.norm>
0

>  <SCORE.heavy>
22

>  <SCORE.norm>
-0.327652

>  <RMSD>
2.441

$$$$
lig.pdb
 OpenBabel11021811523D
libRbt.so/2013.1/901 2013/11/27
 22 23  0  0  0  0  0  0  0  0999 V2000
   15.6356   -9.8996   25.3593 C   0  0  1  0  0  0  0  0  0  0  0  0
   17.1701   -8.1486   26.2691 C   0  0  1  0  0  0  0  0  0  0  0  0
   16.2496   -6.8400   25.9092 C   0  0  1  0  0  0  0  0  0  0  0  0
   17.2200   -5.5543   25.8936 C   0  0  2  0  0  0  0  0  0  0  0  0
   14.6250  -11.0673   25.7585 C   0  0  1  0  0  0  0  0  0  0  0  0
   15.4154  -12.3874   26.1105 C   0  0  2  0  0  0  0  0  0  0  0  0
   16.2269  -12.8546   24.8046 C   0  0  1  0  0  0  0  0  0  0  0  0
   17.3213  -11.7319   24.3963 C   0  0  1  0  0  0  0  0  0  0  0  0
   18.1642  -12.1051   23.1454 C   0  0  0  0  0  0  0  0  0  0  0  0
   17.8160   -5.3786   27.3755 C   0  0  1  0  0  0  0  0  0  0  0  0
   18.7000   -6.6871   27.6991 C   0  0  0  0  0  0  0  0  0  0  0  0
   17.7962   -7.9927   27.6757 C   0  0  2  0  0  0  0  0  0  0  0  0
   16.9754  -14.0932   25.0434 F   0  0  0  0  0  0  0  0  0  0  0  0
   13.8087  -10.5230   26.9405 N   0  0  0  0  0  0  0  0  0  0  0  0
   18.9615  -13.2661   23.3015 N   0  0  0  0  0  0  0  0  0  0  0  0
   18.7419   -4.2033   27.4289 N   0  0  0  0  0  0  0  0  0  0  0  0
   18.5883   -9.1876   27.9515 N   0  0  0  0  0  0  0  0  0  0  0  0
   16.4155   -9.3373   26.3382 O   0  0  0  0  0  0  0  0  0  0  0  0
   15.6778   -7.0361   24.5414 O   0  0  0  0  0  0  0  0  0  0  0  0
   16.4479   -4.4416   25.5915 O   0  0  0  0  0  0  0  0  0  0  0  0
   14.6240  -13.2125   26.3903 O   0  0  0  0  0  0  0  0  0  0  0  0
   16.5307  -10.3885   24.1754 O   0  0  0  0  0  0  0  0  0  0  0  0
  1  5  1  0  0  0  0
  1 18  1  1  0  0  0
  2 18  1  1  0  0  0
  2  3  1  0  0  0  0
  2 12  1  0  0  0  0
  3 19  1  6  0  0  0
  3  4  1  0  0  0  0
  4 20  1  1  0  0  0
  4 10  1  0  0  0  0
  5  6  1  0  0  0  0
  5 14  1  1  0  0  0
  6 21  1  6  0  0  0
  7 13  1  1  0  0  0
  7  6  1  0  0  0  0
  8  9  1  6  0  0  0
  8  7  1  0  0  0  0
 10 16  1  6  0  0  0
 11 10  1  0  0  0  0
 12 17  1  6  0  0  0
 12 11  1  0  0  0  0
 15  9  1  0  0  0  0
 22  8  1  0  0  0  0
 22  1  1  0  0  0  0
M  END
>  <CHROM.1>
-166.70655099,58.17365935,-62.72136994,16.76177015,-9.44435282,25.79284889
1.71623131,-0.32543332,-2.85105798

>  <Name>
lig.pdb

>  <RI>
0

>  <Rbt.Current_Directory>
/home/itssahil/PROJECTS/Mol_Feturizer/New_Systems/rnas/5bxk

>  <Rbt.Executable>
rbdock ($Id: //depot/dev/client3/rdock/2013.1/src/exe/rbdock.cxx#4 $)

>  <Rbt.Library>
libRbt.so (2013.1, Build901 2013/11/27)

>  <Rbt.Parameter_File>
/export/apps/rDock/src/rDock_2013.1_src/data/scripts/dock_solv.prm

>  <Rbt.Receptor>
prm/pocket_docking_3.prm

>  <SCORE>
-8.74757

>  <SCORE.INTER>
-5.39622

>  <SCORE.INTER.CONST>
1

>  <SCORE.INTER.POLAR>
0

>  <SCORE.INTER.ROT>
3

>  <SCORE.INTER.SOLV>
19.0802

>  <SCORE.INTER.VDW>
-15.5576

>  <SCORE.INTER.norm>
-0.245283

>  <SCORE.INTRA>
-3.35135

>  <SCORE.INTRA.DIHEDRAL>
-6.19623

>  <SCORE.INTRA.DIHEDRAL.0>
7.18044

>  <SCORE.INTRA.POLAR>
0

>  <SCORE.INTRA.POLAR.0>
0

>  <SCORE.INTRA.REPUL>
0

>  <SCORE.INTRA.REPUL.0>
0

>  <SCORE.INTRA.SOLV>
-0.866381

>  <SCORE.INTRA.SOLV.lig_0>
-72.0615

>  <SCORE.INTRA.VDW>
0.179959

>  <SCORE.INTRA.VDW.0>
-1.54792

>  <SCORE.INTRA.norm>
-0.152334

>  <SCORE.RESTR>
0

>  <SCORE.RESTR.CAVITY>
0

>  <SCORE.RESTR.norm>
0

>  <SCORE.SYSTEM>
0

>  <SCORE.SYSTEM.CONST>
0

>  <SCORE.SYSTEM.DIHEDRAL>
0

>  <SCORE.SYSTEM.SOLV>
0

>  <SCORE.SYSTEM.norm>
0

>  <SCORE.heavy>
22

>  <SCORE.norm>
-0.397617

>  <RMSD>
2.444

$$$$
lig.pdb
 OpenBabel11021811523D
libRbt.so/2013.1/901 2013/11/27
 22 23  0  0  0  0  0  0  0  0999 V2000
   17.3623   -8.7193   26.3856 C   0  0  1  0  0  0  0  0  0  0  0  0
   18.9244   -8.6645   28.3363 C   0  0  1  0  0  0  0  0  0  0  0  0
   20.2267   -9.2261   27.5131 C   0  0  1  0  0  0  0  0  0  0  0  0
   21.5431   -8.7924   28.3341 C   0  0  2  0  0  0  0  0  0  0  0  0
   15.8321   -8.8565   25.9569 C   0  0  1  0  0  0  0  0  0  0  0  0
   15.3906  -10.3719   25.9574 C   0  0  2  0  0  0  0  0  0  0  0  0
   16.2837  -11.1593   24.8782 C   0  0  1  0  0  0  0  0  0  0  0  0
   17.8458  -11.1122   25.3054 C   0  0  1  0  0  0  0  0  0  0  0  0
   18.7868  -11.8608   24.3212 C   0  0  0  0  0  0  0  0  0  0  0  0
   21.5944   -7.1864   28.3547 C   0  0  1  0  0  0  0  0  0  0  0  0
   20.2943   -6.6716   29.1566 C   0  0  0  0  0  0  0  0  0  0  0  0
   18.9646   -7.1194   28.4129 C   0  0  2  0  0  0  0  0  0  0  0  0
   15.9192  -12.5781   24.8016 F   0  0  0  0  0  0  0  0  0  0  0  0
   15.0425   -8.0009   26.9590 N   0  0  0  0  0  0  0  0  0  0  0  0
   18.5040  -13.2418   24.1766 N   0  0  0  0  0  0  0  0  0  0  0  0
   22.7925   -6.7130   29.1175 N   0  0  0  0  0  0  0  0  0  0  0  0
   17.7787   -6.6730   29.1379 N   0  0  0  0  0  0  0  0  0  0  0  0
   17.7073   -8.9637   27.6908 O   0  0  0  0  0  0  0  0  0  0  0  0
   20.1448  -10.7189   27.4763 O   0  0  0  0  0  0  0  0  0  0  0  0
   22.6505   -9.2624   27.6427 O   0  0  0  0  0  0  0  0  0  0  0  0
   14.2609  -10.4139   25.6297 O   0  0  0  0  0  0  0  0  0  0  0  0
   18.2358   -9.5918   25.4277 O   0  0  0  0  0  0  0  0  0  0  0  0
  1  5  1  0  0  0  0
  1 18  1  1  0  0  0
  2 18  1  6  0  0  0
  2  3  1  0  0  0  0
  2 12  1  0  0  0  0
  3 19  1  1  0  0  0
  3  4  1  0  0  0  0
  4 20  1  6  0  0  0
  4 10  1  0  0  0  0
  5  6  1  0  0  0  0
  5 14  1  1  0  0  0
  6 21  1  6  0  0  0
  7 13  1  1  0  0  0
  7  6  1  0  0  0  0
  8  9  1  6  0  0  0
  8  7  1  0  0  0  0
 10 16  1  1  0  0  0
 11 10  1  0  0  0  0
 12 17  1  1  0  0  0
 12 11  1  0  0  0  0
 15  9  1  0  0  0  0
 22  8  1  0  0  0  0
 22  1  1  0  0  0  0
M  END
>  <CHROM.1>
-166.99725661,-51.60728187,-60.20208548,18.42452363,-9.43149769,26.82413310
2.37347173,0.15000133,-2.52286016

>  <Name>
lig.pdb

>  <RI>
0

>  <Rbt.Current_Directory>
/home/itssahil/PROJECTS/Mol_Feturizer/New_Systems/rnas/5bxk

>  <Rbt.Executable>
rbdock ($Id: //depot/dev/client3/rdock/2013.1/src/exe/rbdock.cxx#4 $)

>  <Rbt.Library>
libRbt.so (2013.1, Build901 2013/11/27)

>  <Rbt.Parameter_File>
/export/apps/rDock/src/rDock_2013.1_src/data/scripts/dock_solv.prm

>  <Rbt.Receptor>
prm/pocket_docking_4.prm

>  <SCORE>
-9.69092

>  <SCORE.INTER>
-7.33877

>  <SCORE.INTER.CONST>
1

>  <SCORE.INTER.POLAR>
0

>  <SCORE.INTER.ROT>
3

>  <SCORE.INTER.SOLV>
14.9793

>  <SCORE.INTER.VDW>
-15.4856

>  <SCORE.INTER.norm>
-0.333581

>  <SCORE.INTRA>
-2.35214

>  <SCORE.INTRA.DIHEDRAL>
-5.93024

>  <SCORE.INTRA.DIHEDRAL.0>
7.18044

>  <SCORE.INTRA.POLAR>
0

>  <SCORE.INTRA.POLAR.0>
0

>  <SCORE.INTRA.REPUL>
0

>  <SCORE.INTRA.REPUL.0>
0

>  <SCORE.INTRA.SOLV>
1.15996

>  <SCORE.INTRA.SOLV.lig_0>
-72.0615

>  <SCORE.INTRA.VDW>
0.0329978

>  <SCORE.INTRA.VDW.0>
-1.54792

>  <SCORE.INTRA.norm>
-0.106916

>  <SCORE.RESTR>
0

>  <SCORE.RESTR.CAVITY>
0

>  <SCORE.RESTR.norm>
0

>  <SCORE.SYSTEM>
0

>  <SCORE.SYSTEM.CONST>
0

>  <SCORE.SYSTEM.DIHEDRAL>
0

>  <SCORE.SYSTEM.SOLV>
0

>  <SCORE.SYSTEM.norm>
0

>  <SCORE.heavy>
22

>  <SCORE.norm>
-0.440496

>  <RMSD>
2.453

$$$$
lig.pdb
 OpenBabel11021811523D
libRbt.so/2013.1/901 2013/11/27
 22 23  0  0  0  0  0  0  0  0999 V2000
   16.0518  -10.0147   25.0835 C   0  0  1  0  0  0  0  0  0  0  0  0
   17.3344   -8.1818   26.1989 C   0  0  1  0  0  0  0  0  0  0  0  0
   16.4543   -6.8772   25.7379 C   0  0  1  0  0  0  0  0  0  0  0  0
   17.4117   -5.5857   25.8413 C   0  0  2  0  0  0  0  0  0  0  0  0
   14.9605  -11.1541   25.3181 C   0  0  1  0  0  0  0  0  0  0  0  0
   15.6279  -12.4393   25.9459 C   0  0  2  0  0  0  0  0  0  0  0  0
   16.7199  -13.0000   24.9089 C   0  0  1  0  0  0  0  0  0  0  0  0
   17.8942  -11.9057   24.6888 C   0  0  1  0  0  0  0  0  0  0  0  0
   19.0048  -12.3684   23.7054 C   0  0  0  0  0  0  0  0  0  0  0  0
   17.8279   -5.4129   27.3837 C   0  0  1  0  0  0  0  0  0  0  0  0
   18.6760   -6.7176   27.8044 C   0  0  0  0  0  0  0  0  0  0  0  0
   17.7896   -8.0284   27.6700 C   0  0  2  0  0  0  0  0  0  0  0  0
   17.3746  -14.2128   25.4110 F   0  0  0  0  0  0  0  0  0  0  0  0
   13.8943  -10.5259   26.2282 N   0  0  0  0  0  0  0  0  0  0  0  0
   18.5209  -12.9269   22.4962 N   0  0  0  0  0  0  0  0  0  0  0  0
   18.7336   -4.2324   27.5500 N   0  0  0  0  0  0  0  0  0  0  0  0
   18.5512   -9.2198   28.0328 N   0  0  0  0  0  0  0  0  0  0  0  0
   16.5845   -9.3753   26.1744 O   0  0  0  0  0  0  0  0  0  0  0  0
   16.0489   -7.0707   24.3116 O   0  0  0  0  0  0  0  0  0  0  0  0
   16.6734   -4.4763   25.4544 O   0  0  0  0  0  0  0  0  0  0  0  0
   14.7823  -13.2450   26.0911 O   0  0  0  0  0  0  0  0  0  0  0  0
   17.1957  -10.5874   24.1862 O   0  0  0  0  0  0  0  0  0  0  0  0
  1  5  1  0  0  0  0
  1 18  1  1  0  0  0
  2 18  1  1  0  0  0
  2  3  1  0  0  0  0
  2 12  1  0  0  0  0
  3 19  1  6  0  0  0
  3  4  1  0  0  0  0
  4 20  1  1  0  0  0
  4 10  1  0  0  0  0
  5  6  1  0  0  0  0
  5 14  1  1  0  0  0
  6 21  1  6  0  0  0
  7 13  1  1  0  0  0
  7  6  1  0  0  0  0
  8  9  1  6  0  0  0
  8  7  1  0  0  0  0
 10 16  1  6  0  0  0
 11 10  1  0  0  0  0
 12 17  1  6  0  0  0
 12 11  1  0  0  0  0
 15  9  1  0  0  0  0
 22  8  1  0  0  0  0
 22  1  1  0  0  0  0
M  END
>  <CHROM.1>
-165.80380968,65.96587623,47.39016323,16.99367299,-9.50073150,25.71206013
1.68393576,-0.23189417,-2.86892834

>  <Name>
lig.pdb

>  <RI>
0

>  <Rbt.Current_Directory>
/home/itssahil/PROJECTS/Mol_Feturizer/New_Systems/rnas/5bxk

>  <Rbt.Executable>
rbdock ($Id: //depot/dev/client3/rdock/2013.1/src/exe/rbdock.cxx#4 $)

>  <Rbt.Library>
libRbt.so (2013.1, Build901 2013/11/27)

>  <Rbt.Parameter_File>
/export/apps/rDock/src/rDock_2013.1_src/data/scripts/dock_solv.prm

>  <Rbt.Receptor>
prm/pocket_docking_5.prm

>  <SCORE>
-5.74508

>  <SCORE.INTER>
-2.84164

>  <SCORE.INTER.CONST>
1

>  <SCORE.INTER.POLAR>
0

>  <SCORE.INTER.ROT>
3

>  <SCORE.INTER.SOLV>
21.6674

>  <SCORE.INTER.VDW>
-14.7169

>  <SCORE.INTER.norm>
-0.129165

>  <SCORE.INTRA>
-2.90344

>  <SCORE.INTRA.DIHEDRAL>
-5.4045

>  <SCORE.INTRA.DIHEDRAL.0>
7.18044

>  <SCORE.INTRA.POLAR>
0

>  <SCORE.INTRA.POLAR.0>
0

>  <SCORE.INTRA.REPUL>
0

>  <SCORE.INTRA.REPUL.0>
0

>  <SCORE.INTRA.SOLV>
-0.452751

>  <SCORE.INTRA.SOLV.lig_0>
-72.0615

>  <SCORE.INTRA.VDW>
0.0251802

>  <SCORE.INTRA.VDW.0>
-1.54792

>  <SCORE.INTRA.norm>
-0.131975

>  <SCORE.RESTR>
0

>  <SCORE.RESTR.CAVITY>
0

>  <SCORE.RESTR.norm>
0

>  <SCORE.SYSTEM>
0

>  <SCORE.SYSTEM.CONST>
0

>  <SCORE.SYSTEM.DIHEDRAL>
0

>  <SCORE.SYSTEM.SOLV>
0

>  <SCORE.SYSTEM.norm>
0

>  <SCORE.heavy>
22

>  <SCORE.norm>
-0.26114

>  <RMSD>
2.459

$$$$
lig.pdb
 OpenBabel11021811523D
libRbt.so/2013.1/901 2013/11/27
 22 23  0  0  0  0  0  0  0  0999 V2000
   15.8207  -10.1958   25.1844 C   0  0  1  0  0  0  0  0  0  0  0  0
   17.3142   -8.4019   26.0789 C   0  0  1  0  0  0  0  0  0  0  0  0
   16.3226   -7.1063   25.9135 C   0  0  1  0  0  0  0  0  0  0  0  0
   17.2488   -5.7887   25.8776 C   0  0  2  0  0  0  0  0  0  0  0  0
   14.7939  -11.3394   25.6110 C   0  0  1  0  0  0  0  0  0  0  0  0
   15.5660  -12.6602   25.9993 C   0  0  2  0  0  0  0  0  0  0  0  0
   16.3744  -13.1717   24.7081 C   0  0  1  0  0  0  0  0  0  0  0  0
   17.4844  -12.0744   24.2737 C   0  0  1  0  0  0  0  0  0  0  0  0
   18.3252  -12.4910   23.0352 C   0  0  0  0  0  0  0  0  0  0  0  0
   18.0037   -5.6880   27.2925 C   0  0  1  0  0  0  0  0  0  0  0  0
   18.9549   -6.9825   27.4260 C   0  0  0  0  0  0  0  0  0  0  0  0
   18.0910   -8.3150   27.4145 C   0  0  2  0  0  0  0  0  0  0  0  0
   17.1059  -14.4134   24.9809 F   0  0  0  0  0  0  0  0  0  0  0  0
   13.9821  -10.7540   26.7764 N   0  0  0  0  0  0  0  0  0  0  0  0
   19.1099  -13.6556   23.2248 N   0  0  0  0  0  0  0  0  0  0  0  0
   18.8966   -4.4866   27.3225 N   0  0  0  0  0  0  0  0  0  0  0  0
   18.9422   -9.4965   27.5186 N   0  0  0  0  0  0  0  0  0  0  0  0
   16.6056   -9.6185   26.1505 O   0  0  0  0  0  0  0  0  0  0  0  0
   15.6053   -7.2339   24.6076 O   0  0  0  0  0  0  0  0  0  0  0  0
   16.4168   -4.6868   25.7397 O   0  0  0  0  0  0  0  0  0  0  0  0
   14.7632  -13.4673   26.2982 O   0  0  0  0  0  0  0  0  0  0  0  0
   16.7120  -10.7270   24.0160 O   0  0  0  0  0  0  0  0  0  0  0  0
  1  5  1  0  0  0  0
  1 18  1  1  0  0  0
  2 18  1  1  0  0  0
  2  3  1  0  0  0  0
  2 12  1  0  0  0  0
  3 19  1  6  0  0  0
  3  4  1  0  0  0  0
  4 20  1  1  0  0  0
  4 10  1  0  0  0  0
  5  6  1  0  0  0  0
  5 14  1  1  0  0  0
  6 21  1  6  0  0  0
  7 13  1  1  0  0  0
  7  6  1  0  0  0  0
  8  9  1  6  0  0  0
  8  7  1  0  0  0  0
 10 16  1  6  0  0  0
 11 10  1  0  0  0  0
 12 17  1  6  0  0  0
 12 11  1  0  0  0  0
 15  9  1  0  0  0  0
 22  8  1  0  0  0  0
 22  1  1  0  0  0  0
M  END
>  <CHROM.1>
-162.67081012,63.93785360,-62.90354550,16.91035859,-9.73576069,25.67570504
1.69698903,-0.19745721,-2.86983434

>  <Name>
lig.pdb

>  <RI>
0

>  <Rbt.Current_Directory>
/home/itssahil/PROJECTS/Mol_Feturizer/New_Systems/rnas/5bxk

>  <Rbt.Executable>
rbdock ($Id: //depot/dev/client3/rdock/2013.1/src/exe/rbdock.cxx#4 $)

>  <Rbt.Library>
libRbt.so (2013.1, Build901 2013/11/27)

>  <Rbt.Parameter_File>
/export/apps/rDock/src/rDock_2013.1_src/data/scripts/dock_solv.prm

>  <Rbt.Receptor>
prm/pocket_docking_4.prm

>  <SCORE>
-8.68777

>  <SCORE.INTER>
-5.64754

>  <SCORE.INTER.CONST>
1

>  <SCORE.INTER.POLAR>
0

>  <SCORE.INTER.ROT>
3

>  <SCORE.INTER.SOLV>
19.2247

>  <SCORE.INTER.VDW>
-15.7733

>  <SCORE.INTER.norm>
-0.256707

>  <SCORE.INTRA>
-3.04022

>  <SCORE.INTRA.DIHEDRAL>
-5.60755

>  <SCORE.INTRA.DIHEDRAL.0>
7.18044

>  <SCORE.INTRA.POLAR>
0

>  <SCORE.INTRA.POLAR.0>
0

>  <SCORE.INTRA.REPUL>
0

>  <SCORE.INTRA.REPUL.0>
0

>  <SCORE.INTRA.SOLV>
-0.701708

>  <SCORE.INTRA.SOLV.lig_0>
-72.0615

>  <SCORE.INTRA.VDW>
0.114407

>  <SCORE.INTRA.VDW.0>
-1.54792

>  <SCORE.INTRA.norm>
-0.138192

>  <SCORE.RESTR>
0

>  <SCORE.RESTR.CAVITY>
0

>  <SCORE.RESTR.norm>
0

>  <SCORE.SYSTEM>
0

>  <SCORE.SYSTEM.CONST>
0

>  <SCORE.SYSTEM.DIHEDRAL>
0

>  <SCORE.SYSTEM.SOLV>
0

>  <SCORE.SYSTEM.norm>
0

>  <SCORE.heavy>
22

>  <SCORE.norm>
-0.394898

>  <RMSD>
2.486

$$$$
lig.pdb
 OpenBabel11021811523D
libRbt.so/2013.1/901 2013/11/27
 22 23  0  0  0  0  0  0  0  0999 V2000
   15.8255  -10.2062   25.1680 C   0  0  1  0  0  0  0  0  0  0  0  0
   17.3131   -8.4117   26.0709 C   0  0  1  0  0  0  0  0  0  0  0  0
   16.3135   -7.1207   25.9177 C   0  0  1  0  0  0  0  0  0  0  0  0
   17.2318   -5.7974   25.8891 C   0  0  2  0  0  0  0  0  0  0  0  0
   14.7951  -11.3473   25.5925 C   0  0  1  0  0  0  0  0  0  0  0  0
   15.5630  -12.6711   25.9788 C   0  0  2  0  0  0  0  0  0  0  0  0
   16.3702  -13.1831   24.6871 C   0  0  1  0  0  0  0  0  0  0  0  0
   17.4837  -12.0885   24.2548 C   0  0  1  0  0  0  0  0  0  0  0  0
   18.3236  -12.5056   23.0158 C   0  0  0  0  0  0  0  0  0  0  0  0
   17.9898   -5.7027   27.3028 C   0  0  1  0  0  0  0  0  0  0  0  0
   18.9489   -6.9926   27.4243 C   0  0  0  0  0  0  0  0  0  0  0  0
   18.0929   -8.3300   27.4051 C   0  0  2  0  0  0  0  0  0  0  0  0
   17.0978  -14.4275   24.9581 F   0  0  0  0  0  0  0  0  0  0  0  0
   13.9847  -10.7613   26.7585 N   0  0  0  0  0  0  0  0  0  0  0  0
   19.1014  -13.6754   23.2024 N   0  0  0  0  0  0  0  0  0  0  0  0
   18.8756   -4.4963   27.3395 N   0  0  0  0  0  0  0  0  0  0  0  0
   18.9513   -9.5072   27.4982 N   0  0  0  0  0  0  0  0  0  0  0  0
   16.6119   -9.6329   26.1352 O   0  0  0  0  0  0  0  0  0  0  0  0
   15.5935   -7.2428   24.6127 O   0  0  0  0  0  0  0  0  0  0  0  0
   16.3929   -4.6995   25.7616 O   0  0  0  0  0  0  0  0  0  0  0  0
   14.7576  -13.4762   26.2763 O   0  0  0  0  0  0  0  0  0  0  0  0
   16.7156  -10.7383   23.9990 O   0  0  0  0  0  0  0  0  0  0  0  0
  1  5  1  0  0  0  0
  1 18  1  1  0  0  0
  2 18  1  1  0  0  0
  2  3  1  0  0  0  0
  2 12  1  0  0  0  0
  3 19  1  6  0  0  0
  3  4  1  0  0  0  0
  4 20  1  1  0  0  0
  4 10  1  0  0  0  0
  5  6  1  0  0  0  0
  5 14  1  1  0  0  0
  6 21  1  6  0  0  0
  7 13  1  1  0  0  0
  7  6  1  0  0  0  0
  8  9  1  6  0  0  0
  8  7  1  0  0  0  0
 10 16  1  6  0  0  0
 11 10  1  0  0  0  0
 12 17  1  6  0  0  0
 12 11  1  0  0  0  0
 15  9  1  0  0  0  0
 22  8  1  0  0  0  0
 22  1  1  0  0  0  0
M  END
>  <CHROM.1>
-161.94995761,63.77955663,-62.71552475,16.90541796,-9.74759621,25.66643655
1.69455575,-0.19295557,-2.86631934

>  <Name>
lig.pdb

>  <RI>
0

>  <Rbt.Current_Directory>
/home/itssahil/PROJECTS/Mol_Feturizer/New_Systems/rnas/5bxk

>  <Rbt.Executable>
rbdock ($Id: //depot/dev/client3/rdock/2013.1/src/exe/rbdock.cxx#4 $)

>  <Rbt.Library>
libRbt.so (2013.1, Build901 2013/11/27)

>  <Rbt.Parameter_File>
/export/apps/rDock/src/rDock_2013.1_src/data/scripts/dock_solv.prm

>  <Rbt.Receptor>
prm/pocket_docking_7.prm

>  <SCORE>
-8.70624

>  <SCORE.INTER>
-5.72279

>  <SCORE.INTER.CONST>
1

>  <SCORE.INTER.POLAR>
0

>  <SCORE.INTER.ROT>
3

>  <SCORE.INTER.SOLV>
19.1501

>  <SCORE.INTER.VDW>
-15.7986

>  <SCORE.INTER.norm>
-0.260127

>  <SCORE.INTRA>
-2.98346

>  <SCORE.INTRA.DIHEDRAL>
-5.51275

>  <SCORE.INTRA.DIHEDRAL.0>
7.18044

>  <SCORE.INTRA.POLAR>
0

>  <SCORE.INTRA.POLAR.0>
0

>  <SCORE.INTRA.REPUL>
0

>  <SCORE.INTRA.REPUL.0>
0

>  <SCORE.INTRA.SOLV>
-0.689314

>  <SCORE.INTRA.SOLV.lig_0>
-72.0615

>  <SCORE.INTRA.VDW>
0.117579

>  <SCORE.INTRA.VDW.0>
-1.54792

>  <SCORE.INTRA.norm>
-0.135612

>  <SCORE.RESTR>
0

>  <SCORE.RESTR.CAVITY>
0

>  <SCORE.RESTR.norm>
0

>  <SCORE.SYSTEM>
0

>  <SCORE.SYSTEM.CONST>
0

>  <SCORE.SYSTEM.DIHEDRAL>
0

>  <SCORE.SYSTEM.SOLV>
0

>  <SCORE.SYSTEM.norm>
0

>  <SCORE.heavy>
22

>  <SCORE.norm>
-0.395738

>  <RMSD>
2.494

$$$$
lig.pdb
 OpenBabel11021811523D
libRbt.so/2013.1/901 2013/11/27
 22 23  0  0  0  0  0  0  0  0999 V2000
   16.3428   -8.9979   25.0221 C   0  0  1  0  0  0  0  0  0  0  0  0
   17.2463   -7.4315   26.7479 C   0  0  1  0  0  0  0  0  0  0  0  0
   18.3353   -7.4961   27.9723 C   0  0  1  0  0  0  0  0  0  0  0  0
   18.2177   -6.1182   28.7987 C   0  0  2  0  0  0  0  0  0  0  0  0
   15.0108   -9.6965   25.5528 C   0  0  1  0  0  0  0  0  0  0  0  0
   15.3283  -11.1343   26.1214 C   0  0  2  0  0  0  0  0  0  0  0  0
   15.9203  -12.0313   24.9267 C   0  0  1  0  0  0  0  0  0  0  0  0
   17.3165  -11.4035   24.3964 C   0  0  1  0  0  0  0  0  0  0  0  0
   17.9698  -12.2148   23.2435 C   0  0  0  0  0  0  0  0  0  0  0  0
   18.6226   -4.9214   27.8059 C   0  0  1  0  0  0  0  0  0  0  0  0
   17.5417   -4.8987   26.6102 C   0  0  0  0  0  0  0  0  0  0  0  0
   17.5819   -6.2602   25.7938 C   0  0  2  0  0  0  0  0  0  0  0  0
   16.2233  -13.3963   25.3700 F   0  0  0  0  0  0  0  0  0  0  0  0
   14.4377   -8.7446   26.6135 N   0  0  0  0  0  0  0  0  0  0  0  0
   18.4030  -13.5126   23.6128 N   0  0  0  0  0  0  0  0  0  0  0  0
   18.5215   -3.6038   28.5095 N   0  0  0  0  0  0  0  0  0  0  0  0
   16.5958   -6.2590   24.7173 N   0  0  0  0  0  0  0  0  0  0  0  0
   17.2796   -8.5823   25.9343 O   0  0  0  0  0  0  0  0  0  0  0  0
   17.9615   -8.6346   28.8669 O   0  0  0  0  0  0  0  0  0  0  0  0
   19.1379   -6.1640   29.8362 O   0  0  0  0  0  0  0  0  0  0  0  0
   14.3141  -11.6030   26.4915 O   0  0  0  0  0  0  0  0  0  0  0  0
   17.0084   -9.9243   23.9541 O   0  0  0  0  0  0  0  0  0  0  0  0
  1  5  1  0  0  0  0
  1 18  1  1  0  0  0
  2 18  1  6  0  0  0
  2  3  1  0  0  0  0
  2 12  1  0  0  0  0
  3 19  1  1  0  0  0
  3  4  1  0  0  0  0
  4 20  1  1  0  0  0
  4 10  1  0  0  0  0
  5  6  1  0  0  0  0
  5 14  1  1  0  0  0
  6 21  1  6  0  0  0
  7 13  1  1  0  0  0
  7  6  1  0  0  0  0
  8  9  1  6  0  0  0
  8  7  1  0  0  0  0
 10 16  1  1  0  0  0
 11 10  1  0  0  0  0
 12 17  1  6  0  0  0
 12 11  1  0  0  0  0
 15  9  1  0  0  0  0
 22  8  1  0  0  0  0
 22  1  1  0  0  0  0
M  END
>  <CHROM.1>
-77.44092252,164.61339541,-65.67543127,17.05129814,-8.86134533,26.23125124
-2.30040674,1.22548702,1.16459513

>  <Name>
lig.pdb

>  <RI>
0

>  <Rbt.Current_Directory>
/home/itssahil/PROJECTS/Mol_Feturizer/New_Systems/rnas/5bxk

>  <Rbt.Executable>
rbdock ($Id: //depot/dev/client3/rdock/2013.1/src/exe/rbdock.cxx#4 $)

>  <Rbt.Library>
libRbt.so (2013.1, Build901 2013/11/27)

>  <Rbt.Parameter_File>
/export/apps/rDock/src/rDock_2013.1_src/data/scripts/dock_solv.prm

>  <Rbt.Receptor>
prm/pocket_docking_3.prm

>  <SCORE>
-6.7714

>  <SCORE.INTER>
-6.226

>  <SCORE.INTER.CONST>
1

>  <SCORE.INTER.POLAR>
0

>  <SCORE.INTER.ROT>
3

>  <SCORE.INTER.SOLV>
12.7862

>  <SCORE.INTER.VDW>
-14.0127

>  <SCORE.INTER.norm>
-0.283

>  <SCORE.INTRA>
-0.545405

>  <SCORE.INTRA.DIHEDRAL>
-4.47668

>  <SCORE.INTRA.DIHEDRAL.0>
7.18044

>  <SCORE.INTRA.POLAR>
0

>  <SCORE.INTRA.POLAR.0>
0

>  <SCORE.INTRA.REPUL>
0

>  <SCORE.INTRA.REPUL.0>
0

>  <SCORE.INTRA.SOLV>
2.26134

>  <SCORE.INTRA.SOLV.lig_0>
-72.0615

>  <SCORE.INTRA.VDW>
0.562263

>  <SCORE.INTRA.VDW.0>
-1.54792

>  <SCORE.INTRA.norm>
-0.0247912

>  <SCORE.RESTR>
0

>  <SCORE.RESTR.CAVITY>
0

>  <SCORE.RESTR.norm>
0

>  <SCORE.SYSTEM>
0

>  <SCORE.SYSTEM.CONST>
0

>  <SCORE.SYSTEM.DIHEDRAL>
0

>  <SCORE.SYSTEM.SOLV>
0

>  <SCORE.SYSTEM.norm>
0

>  <SCORE.heavy>
22

>  <SCORE.norm>
-0.307791

>  <RMSD>
2.545

$$$$
lig.pdb
 OpenBabel11021811523D
libRbt.so/2013.1/901 2013/11/27
 22 23  0  0  0  0  0  0  0  0999 V2000
   15.6994  -10.0333   25.2106 C   0  0  1  0  0  0  0  0  0  0  0  0
   17.1554   -8.2037   26.0943 C   0  0  1  0  0  0  0  0  0  0  0  0
   16.1613   -6.9300   25.8138 C   0  0  1  0  0  0  0  0  0  0  0  0
   17.0737   -5.6030   25.7722 C   0  0  2  0  0  0  0  0  0  0  0  0
   14.6932  -11.1946   25.6384 C   0  0  1  0  0  0  0  0  0  0  0  0
   15.4898  -12.4919   26.0551 C   0  0  2  0  0  0  0  0  0  0  0  0
   16.3279  -13.0016   24.7822 C   0  0  1  0  0  0  0  0  0  0  0  0
   17.4185  -11.8847   24.3485 C   0  0  1  0  0  0  0  0  0  0  0  0
   18.2860  -12.2980   23.1274 C   0  0  0  0  0  0  0  0  0  0  0  0
   17.7437   -5.4296   27.2224 C   0  0  1  0  0  0  0  0  0  0  0  0
   18.6994   -6.7041   27.4687 C   0  0  0  0  0  0  0  0  0  0  0  0
   17.8521   -8.0473   27.4673 C   0  0  2  0  0  0  0  0  0  0  0  0
   17.0838  -14.2224   25.0819 F   0  0  0  0  0  0  0  0  0  0  0  0
   13.8518  -10.6128   26.7844 N   0  0  0  0  0  0  0  0  0  0  0  0
   19.0951  -13.4411   23.3439 N   0  0  0  0  0  0  0  0  0  0  0  0
   18.6202   -4.2162   27.2498 N   0  0  0  0  0  0  0  0  0  0  0  0
   18.7085   -9.2114   27.6734 N   0  0  0  0  0  0  0  0  0  0  0  0
   16.4571   -9.4253   26.1795 O   0  0  0  0  0  0  0  0  0  0  0  0
   15.5227   -7.1249   24.4757 O   0  0  0  0  0  0  0  0  0  0  0  0
   16.2392   -4.5196   25.5370 O   0  0  0  0  0  0  0  0  0  0  0  0
   14.7016  -13.3134   26.3538 O   0  0  0  0  0  0  0  0  0  0  0  0
   16.6191  -10.5591   24.0619 O   0  0  0  0  0  0  0  0  0  0  0  0
  1  5  1  0  0  0  0
  1 18  1  1  0  0  0
  2 18  1  1  0  0  0
  2  3  1  0  0  0  0
  2 12  1  0  0  0  0
  3 19  1  6  0  0  0
  3  4  1  0  0  0  0
  4 20  1  1  0  0  0
  4 10  1  0  0  0  0
  5  6  1  0  0  0  0
  5 14  1  1  0  0  0
  6 21  1  6  0  0  0
  7 13  1  1  0  0  0
  7  6  1  0  0  0  0
  8  9  1  6  0  0  0
  8  7  1  0  0  0  0
 10 16  1  6  0  0  0
 11 10  1  0  0  0  0
 12 17  1  6  0  0  0
 12 11  1  0  0  0  0
 15  9  1  0  0  0  0
 22  8  1  0  0  0  0
 22  1  1  0  0  0  0
M  END
>  <CHROM.1>
-163.74492145,61.55195159,-62.94270863,16.77938877,-9.54204543,25.68893062
1.67763376,-0.21992651,-2.89302773

>  <Name>
lig.pdb

>  <RI>
0

>  <Rbt.Current_Directory>
/home/itssahil/PROJECTS/Mol_Feturizer/New_Systems/rnas/5bxk

>  <Rbt.Executable>
rbdock ($Id: //depot/dev/client3/rdock/2013.1/src/exe/rbdock.cxx#4 $)

>  <Rbt.Library>
libRbt.so (2013.1, Build901 2013/11/27)

>  <Rbt.Parameter_File>
/export/apps/rDock/src/rDock_2013.1_src/data/scripts/dock_solv.prm

>  <Rbt.Receptor>
prm/pocket_docking_5.prm

>  <SCORE>
-8.66879

>  <SCORE.INTER>
-5.51871

>  <SCORE.INTER.CONST>
1

>  <SCORE.INTER.POLAR>
0

>  <SCORE.INTER.ROT>
3

>  <SCORE.INTER.SOLV>
19.1598

>  <SCORE.INTER.VDW>
-15.6658

>  <SCORE.INTER.norm>
-0.250851

>  <SCORE.INTRA>
-3.15008

>  <SCORE.INTRA.DIHEDRAL>
-5.82121

>  <SCORE.INTRA.DIHEDRAL.0>
7.18044

>  <SCORE.INTRA.POLAR>
0

>  <SCORE.INTRA.POLAR.0>
0

>  <SCORE.INTRA.REPUL>
0

>  <SCORE.INTRA.REPUL.0>
0

>  <SCORE.INTRA.SOLV>
-0.761552

>  <SCORE.INTRA.SOLV.lig_0>
-72.0615

>  <SCORE.INTRA.VDW>
0.141307

>  <SCORE.INTRA.VDW.0>
-1.54792

>  <SCORE.INTRA.norm>
-0.143185

>  <SCORE.RESTR>
0

>  <SCORE.RESTR.CAVITY>
0

>  <SCORE.RESTR.norm>
0

>  <SCORE.SYSTEM>
0

>  <SCORE.SYSTEM.CONST>
0

>  <SCORE.SYSTEM.DIHEDRAL>
0

>  <SCORE.SYSTEM.SOLV>
0

>  <SCORE.SYSTEM.norm>
0

>  <SCORE.heavy>
22

>  <SCORE.norm>
-0.394036

>  <RMSD>
2.553

$$$$
lig.pdb
 OpenBabel11021811523D
libRbt.so/2013.1/901 2013/11/27
 22 23  0  0  0  0  0  0  0  0999 V2000
   16.9533   -9.7991   25.6989 C   0  0  1  0  0  0  0  0  0  0  0  0
   18.1540   -8.8692   27.6844 C   0  0  1  0  0  0  0  0  0  0  0  0
   19.6760   -9.1366   27.1357 C   0  0  1  0  0  0  0  0  0  0  0  0
   20.6577   -8.1275   27.9188 C   0  0  2  0  0  0  0  0  0  0  0  0
   15.5915  -10.4784   25.2213 C   0  0  1  0  0  0  0  0  0  0  0  0
   15.6145  -12.0295   25.5126 C   0  0  2  0  0  0  0  0  0  0  0  0
   16.8192  -12.6839   24.6743 C   0  0  1  0  0  0  0  0  0  0  0  0
   18.2378  -12.0790   25.1710 C   0  0  1  0  0  0  0  0  0  0  0  0
   19.4655  -12.6651   24.4202 C   0  0  0  0  0  0  0  0  0  0  0  0
   20.2218   -6.6298   27.5327 C   0  0  1  0  0  0  0  0  0  0  0  0
   18.7192   -6.4094   28.0730 C   0  0  0  0  0  0  0  0  0  0  0  0
   17.7171   -7.4190   27.3670 C   0  0  2  0  0  0  0  0  0  0  0  0
   16.8961  -14.1349   24.8746 F   0  0  0  0  0  0  0  0  0  0  0  0
   14.4742   -9.7423   25.9760 N   0  0  0  0  0  0  0  0  0  0  0  0
   19.3613  -12.6262   23.0075 N   0  0  0  0  0  0  0  0  0  0  0  0
   21.0893   -5.6357   28.2403 N   0  0  0  0  0  0  0  0  0  0  0  0
   16.3544   -7.2407   27.8596 N   0  0  0  0  0  0  0  0  0  0  0  0
   17.1981   -9.6838   27.0440 O   0  0  0  0  0  0  0  0  0  0  0  0
   20.0517  -10.5437   27.4748 O   0  0  0  0  0  0  0  0  0  0  0  0
   21.9484   -8.3460   27.4586 O   0  0  0  0  0  0  0  0  0  0  0  0
   14.5931  -12.4777   25.1368 O   0  0  0  0  0  0  0  0  0  0  0  0
   18.1500  -10.5170   24.9956 O   0  0  0  0  0  0  0  0  0  0  0  0
  1  5  1  0  0  0  0
  1 18  1  1  0  0  0
  2 18  1  6  0  0  0
  2  3  1  0  0  0  0
  2 12  1  0  0  0  0
  3 19  1  1  0  0  0
  3  4  1  0  0  0  0
  4 20  1  6  0  0  0
  4 10  1  0  0  0  0
  5  6  1  0  0  0  0
  5 14  1  1  0  0  0
  6 21  1  6  0  0  0
  7 13  1  1  0  0  0
  7  6  1  0  0  0  0
  8  9  1  6  0  0  0
  8  7  1  0  0  0  0
 10 16  1  1  0  0  0
 11 10  1  0  0  0  0
 12 17  1  1  0  0  0
 12 11  1  0  0  0  0
 15  9  1  0  0  0  0
 22  8  1  0  0  0  0
 22  1  1  0  0  0  0
M  END
>  <CHROM.1>
-164.15270535,-55.58749008,50.84266979,18.08296485,-9.96259854,26.27281082
2.06782452,0.00908195,-2.62508552

>  <Name>
lig.pdb

>  <RI>
0

>  <Rbt.Current_Directory>
/home/itssahil/PROJECTS/Mol_Feturizer/New_Systems/rnas/5bxk

>  <Rbt.Executable>
rbdock ($Id: //depot/dev/client3/rdock/2013.1/src/exe/rbdock.cxx#4 $)

>  <Rbt.Library>
libRbt.so (2013.1, Build901 2013/11/27)

>  <Rbt.Parameter_File>
/export/apps/rDock/src/rDock_2013.1_src/data/scripts/dock_solv.prm

>  <Rbt.Receptor>
prm/pocket_docking_3.prm

>  <SCORE>
-7.88349

>  <SCORE.INTER>
-5.80233

>  <SCORE.INTER.CONST>
1

>  <SCORE.INTER.POLAR>
0

>  <SCORE.INTER.ROT>
3

>  <SCORE.INTER.SOLV>
21.5031

>  <SCORE.INTER.VDW>
-16.6359

>  <SCORE.INTER.norm>
-0.263742

>  <SCORE.INTRA>
-2.08116

>  <SCORE.INTRA.DIHEDRAL>
-5.52746

>  <SCORE.INTRA.DIHEDRAL.0>
7.18044

>  <SCORE.INTRA.POLAR>
0

>  <SCORE.INTRA.POLAR.0>
0

>  <SCORE.INTRA.REPUL>
0

>  <SCORE.INTRA.REPUL.0>
0

>  <SCORE.INTRA.SOLV>
1.49505

>  <SCORE.INTRA.SOLV.lig_0>
-72.0615

>  <SCORE.INTRA.VDW>
-0.0649598

>  <SCORE.INTRA.VDW.0>
-1.54792

>  <SCORE.INTRA.norm>
-0.0945982

>  <SCORE.RESTR>
0

>  <SCORE.RESTR.CAVITY>
0

>  <SCORE.RESTR.norm>
0

>  <SCORE.SYSTEM>
0

>  <SCORE.SYSTEM.CONST>
0

>  <SCORE.SYSTEM.DIHEDRAL>
0

>  <SCORE.SYSTEM.SOLV>
0

>  <SCORE.SYSTEM.norm>
0

>  <SCORE.heavy>
22

>  <SCORE.norm>
-0.35834

>  <RMSD>
2.596

$$$$
lig.pdb
 OpenBabel11021811523D
libRbt.so/2013.1/901 2013/11/27
 22 23  0  0  0  0  0  0  0  0999 V2000
   16.3508   -8.2103   24.9806 C   0  0  1  0  0  0  0  0  0  0  0  0
   17.6288   -6.6768   26.4852 C   0  0  1  0  0  0  0  0  0  0  0  0
   17.1730   -5.4016   25.5603 C   0  0  1  0  0  0  0  0  0  0  0  0
   17.5122   -4.0595   26.3842 C   0  0  2  0  0  0  0  0  0  0  0  0
   14.8380   -8.1725   25.4844 C   0  0  1  0  0  0  0  0  0  0  0  0
   14.5476   -9.3818   26.4563 C   0  0  2  0  0  0  0  0  0  0  0  0
   14.7683  -10.7495   25.6419 C   0  0  1  0  0  0  0  0  0  0  0  0
   16.3121  -10.8730   25.1665 C   0  0  1  0  0  0  0  0  0  0  0  0
   16.6219  -12.1754   24.3776 C   0  0  0  0  0  0  0  0  0  0  0  0
   16.6232   -4.0746   27.7227 C   0  0  1  0  0  0  0  0  0  0  0  0
   17.0876   -5.3468   28.5969 C   0  0  0  0  0  0  0  0  0  0  0  0
   16.8209   -6.6972   27.8049 C   0  0  2  0  0  0  0  0  0  0  0  0
   14.4965  -11.9273   26.4728 F   0  0  0  0  0  0  0  0  0  0  0  0
   14.6598   -6.8040   26.1592 N   0  0  0  0  0  0  0  0  0  0  0  0
   16.4608  -13.3669   25.1277 N   0  0  0  0  0  0  0  0  0  0  0  0
   16.9006   -2.8555   28.5464 N   0  0  0  0  0  0  0  0  0  0  0  0
   17.2523   -7.8570   28.5795 N   0  0  0  0  0  0  0  0  0  0  0  0
   17.3517   -7.9153   25.8716 O   0  0  0  0  0  0  0  0  0  0  0  0
   17.9872   -5.4227   24.3061 O   0  0  0  0  0  0  0  0  0  0  0  0
   17.1275   -2.9750   25.6088 O   0  0  0  0  0  0  0  0  0  0  0  0
   13.4215   -9.3077   26.7906 O   0  0  0  0  0  0  0  0  0  0  0  0
   16.6243   -9.5927   24.3053 O   0  0  0  0  0  0  0  0  0  0  0  0
  1  5  1  0  0  0  0
  1 18  1  1  0  0  0
  2 18  1  6  0  0  0
  2  3  1  0  0  0  0
  2 12  1  0  0  0  0
  3 19  1  6  0  0  0
  3  4  1  0  0  0  0
  4 20  1  6  0  0  0
  4 10  1  0  0  0  0
  5  6  1  0  0  0  0
  5 14  1  1  0  0  0
  6 21  1  6  0  0  0
  7 13  1  1  0  0  0
  7  6  1  0  0  0  0
  8  9  1  6  0  0  0
  8  7  1  0  0  0  0
 10 16  1  1  0  0  0
 11 10  1  0  0  0  0
 12 17  1  1  0  0  0
 12 11  1  0  0  0  0
 15  9  1  0  0  0  0
 22  8  1  0  0  0  0
 22  1  1  0  0  0  0
M  END
>  <CHROM.1>
-67.18502815,-28.95326507,-63.94676742,16.27762770,-7.77491980,26.18049739
-1.92640079,0.89476181,0.48186358

>  <Name>
lig.pdb

>  <RI>
0

>  <Rbt.Current_Directory>
/home/itssahil/PROJECTS/Mol_Feturizer/New_Systems/rnas/5bxk

>  <Rbt.Executable>
rbdock ($Id: //depot/dev/client3/rdock/2013.1/src/exe/rbdock.cxx#4 $)

>  <Rbt.Library>
libRbt.so (2013.1, Build901 2013/11/27)

>  <Rbt.Parameter_File>
/export/apps/rDock/src/rDock_2013.1_src/data/scripts/dock_solv.prm

>  <Rbt.Receptor>
prm/pocket_docking_6.prm

>  <SCORE>
-4.12036

>  <SCORE.INTER>
-5.66152

>  <SCORE.INTER.CONST>
1

>  <SCORE.INTER.POLAR>
0

>  <SCORE.INTER.ROT>
3

>  <SCORE.INTER.SOLV>
9.7401

>  <SCORE.INTER.VDW>
-12.621

>  <SCORE.INTER.norm>
-0.257342

>  <SCORE.INTRA>
1.54115

>  <SCORE.INTRA.DIHEDRAL>
-2.95016

>  <SCORE.INTRA.DIHEDRAL.0>
7.18044

>  <SCORE.INTRA.POLAR>
0

>  <SCORE.INTRA.POLAR.0>
0

>  <SCORE.INTRA.REPUL>
0

>  <SCORE.INTRA.REPUL.0>
0

>  <SCORE.INTRA.SOLV>
5.23491

>  <SCORE.INTRA.SOLV.lig_0>
-72.0615

>  <SCORE.INTRA.VDW>
0.398782

>  <SCORE.INTRA.VDW.0>
-1.54792

>  <SCORE.INTRA.norm>
0.0700525

>  <SCORE.RESTR>
0

>  <SCORE.RESTR.CAVITY>
0

>  <SCORE.RESTR.norm>
0

>  <SCORE.SYSTEM>
0

>  <SCORE.SYSTEM.CONST>
0

>  <SCORE.SYSTEM.DIHEDRAL>
0

>  <SCORE.SYSTEM.SOLV>
0

>  <SCORE.SYSTEM.norm>
0

>  <SCORE.heavy>
22

>  <SCORE.norm>
-0.187289

>  <RMSD>
2.726

$$$$
lig.pdb
 OpenBabel11021811523D
libRbt.so/2013.1/901 2013/11/27
 22 23  0  0  0  0  0  0  0  0999 V2000
   15.0504   -8.7075   25.7122 C   0  0  1  0  0  0  0  0  0  0  0  0
   16.6342   -6.8926   26.3803 C   0  0  1  0  0  0  0  0  0  0  0  0
   15.8014   -5.6806   25.6546 C   0  0  1  0  0  0  0  0  0  0  0  0
   16.8098   -4.4365   25.4800 C   0  0  2  0  0  0  0  0  0  0  0  0
   14.0627   -9.8371   26.2529 C   0  0  1  0  0  0  0  0  0  0  0  0
   14.8769  -11.1015   26.7324 C   0  0  2  0  0  0  0  0  0  0  0  0
   15.6742  -11.6979   25.4711 C   0  0  1  0  0  0  0  0  0  0  0  0
   16.7463  -10.6129   24.9247 C   0  0  1  0  0  0  0  0  0  0  0  0
   17.5745  -11.1096   23.7074 C   0  0  0  0  0  0  0  0  0  0  0  0
   17.2484   -3.9580   26.9499 C   0  0  1  0  0  0  0  0  0  0  0  0
   18.0488   -5.1772   27.6363 C   0  0  0  0  0  0  0  0  0  0  0  0
   17.1102   -6.4496   27.7846 C   0  0  2  0  0  0  0  0  0  0  0  0
   16.4436  -12.8940   25.8300 F   0  0  0  0  0  0  0  0  0  0  0  0
   13.2576   -9.1776   27.3827 N   0  0  0  0  0  0  0  0  0  0  0  0
   18.4057  -12.2243   23.9802 N   0  0  0  0  0  0  0  0  0  0  0  0
   18.2014   -2.8068   26.8605 N   0  0  0  0  0  0  0  0  0  0  0  0
   17.8281   -7.5670   28.3905 N   0  0  0  0  0  0  0  0  0  0  0  0
   15.8377   -8.0327   26.6107 O   0  0  0  0  0  0  0  0  0  0  0  0
   15.3740   -6.1553   24.3024 O   0  0  0  0  0  0  0  0  0  0  0  0
   16.1119   -3.4052   24.8679 O   0  0  0  0  0  0  0  0  0  0  0  0
   14.1016  -11.9008   27.1135 O   0  0  0  0  0  0  0  0  0  0  0  0
   15.9336   -9.3113   24.5731 O   0  0  0  0  0  0  0  0  0  0  0  0
  1  5  1  0  0  0  0
  1 18  1  1  0  0  0
  2 18  1  1  0  0  0
  2  3  1  0  0  0  0
  2 12  1  0  0  0  0
  3 19  1  6  0  0  0
  3  4  1  0  0  0  0
  4 20  1  1  0  0  0
  4 10  1  0  0  0  0
  5  6  1  0  0  0  0
  5 14  1  1  0  0  0
  6 21  1  6  0  0  0
  7 13  1  1  0  0  0
  7  6  1  0  0  0  0
  8  9  1  6  0  0  0
  8  7  1  0  0  0  0
 10 16  1  6  0  0  0
 11 10  1  0  0  0  0
 12 17  1  6  0  0  0
 12 11  1  0  0  0  0
 15  9  1  0  0  0  0
 22  8  1  0  0  0  0
 22  1  1  0  0  0  0
M  END
>  <CHROM.1>
-170.64274960,51.52056744,-63.63915626,16.21995359,-8.21258974,26.00364183
1.76143928,-0.61415616,-2.92792989

>  <Name>
lig.pdb

>  <RI>
0

>  <Rbt.Current_Directory>
/home/itssahil/PROJECTS/Mol_Feturizer/New_Systems/rnas/5bxk

>  <Rbt.Executable>
rbdock ($Id: //depot/dev/client3/rdock/2013.1/src/exe/rbdock.cxx#4 $)

>  <Rbt.Library>
libRbt.so (2013.1, Build901 2013/11/27)

>  <Rbt.Parameter_File>
/export/apps/rDock/src/rDock_2013.1_src/data/scripts/dock_solv.prm

>  <Rbt.Receptor>
prm/pocket_docking_8.prm

>  <SCORE>
-8.36783

>  <SCORE.INTER>
-5.00945

>  <SCORE.INTER.CONST>
1

>  <SCORE.INTER.POLAR>
0

>  <SCORE.INTER.ROT>
3

>  <SCORE.INTER.SOLV>
16.4027

>  <SCORE.INTER.VDW>
-14.4072

>  <SCORE.INTER.norm>
-0.227702

>  <SCORE.INTRA>
-3.35838

>  <SCORE.INTRA.DIHEDRAL>
-6.24129

>  <SCORE.INTRA.DIHEDRAL.0>
7.18044

>  <SCORE.INTRA.POLAR>
0

>  <SCORE.INTRA.POLAR.0>
0

>  <SCORE.INTRA.REPUL>
0

>  <SCORE.INTRA.REPUL.0>
0

>  <SCORE.INTRA.SOLV>
-0.924303

>  <SCORE.INTRA.SOLV.lig_0>
-72.0615

>  <SCORE.INTRA.VDW>
0.224419

>  <SCORE.INTRA.VDW.0>
-1.54792

>  <SCORE.INTRA.norm>
-0.152653

>  <SCORE.RESTR>
0

>  <SCORE.RESTR.CAVITY>
0

>  <SCORE.RESTR.norm>
0

>  <SCORE.SYSTEM>
0

>  <SCORE.SYSTEM.CONST>
0

>  <SCORE.SYSTEM.DIHEDRAL>
0

>  <SCORE.SYSTEM.SOLV>
0

>  <SCORE.SYSTEM.norm>
0

>  <SCORE.heavy>
22

>  <SCORE.norm>
-0.380356

>  <RMSD>
2.869

$$$$
lig.pdb
 OpenBabel11021811523D
libRbt.so/2013.1/901 2013/11/27
 22 23  0  0  0  0  0  0  0  0999 V2000
   16.8114   -8.1535   26.4076 C   0  0  1  0  0  0  0  0  0  0  0  0
   18.3289   -8.6155   28.3395 C   0  0  1  0  0  0  0  0  0  0  0  0
   19.7000   -8.4005   27.4659 C   0  0  1  0  0  0  0  0  0  0  0  0
   20.9116   -9.0644   28.2944 C   0  0  2  0  0  0  0  0  0  0  0  0
   15.4206   -7.5126   25.9617 C   0  0  1  0  0  0  0  0  0  0  0  0
   14.2142   -8.3414   26.5526 C   0  0  2  0  0  0  0  0  0  0  0  0
   14.2882   -9.8339   25.9616 C   0  0  1  0  0  0  0  0  0  0  0  0
   15.6540  -10.5587   26.4455 C   0  0  1  0  0  0  0  0  0  0  0  0
   15.8064  -12.0161   25.9285 C   0  0  0  0  0  0  0  0  0  0  0  0
   21.0476   -8.2628   29.6804 C   0  0  1  0  0  0  0  0  0  0  0  0
   19.6791   -8.4841   30.5030 C   0  0  0  0  0  0  0  0  0  0  0  0
   18.4428   -7.8909   29.7022 C   0  0  2  0  0  0  0  0  0  0  0  0
   13.1837  -10.6673   26.4484 F   0  0  0  0  0  0  0  0  0  0  0  0
   15.4537   -6.0607   26.4622 N   0  0  0  0  0  0  0  0  0  0  0  0
   14.7933  -12.9032   26.3700 N   0  0  0  0  0  0  0  0  0  0  0  0
   22.1525   -8.8396   30.5099 N   0  0  0  0  0  0  0  0  0  0  0  0
   17.1942   -8.0993   30.4293 N   0  0  0  0  0  0  0  0  0  0  0  0
   17.1985   -8.0453   27.7194 O   0  0  0  0  0  0  0  0  0  0  0  0
   19.5421   -9.1257   26.1676 O   0  0  0  0  0  0  0  0  0  0  0  0
   22.0767   -8.8850   27.5625 O   0  0  0  0  0  0  0  0  0  0  0  0
   13.2185   -7.8299   26.1888 O   0  0  0  0  0  0  0  0  0  0  0  0
   16.8448   -9.6504   25.9603 O   0  0  0  0  0  0  0  0  0  0  0  0
  1  5  1  0  0  0  0
  1 18  1  1  0  0  0
  2 18  1  6  0  0  0
  2  3  1  0  0  0  0
  2 12  1  0  0  0  0
  3 19  1  6  0  0  0
  3  4  1  0  0  0  0
  4 20  1  6  0  0  0
  4 10  1  0  0  0  0
  5  6  1  0  0  0  0
  5 14  1  1  0  0  0
  6 21  1  6  0  0  0
  7 13  1  1  0  0  0
  7  6  1  0  0  0  0
  8  9  1  6  0  0  0
  8  7  1  0  0  0  0
 10 16  1  1  0  0  0
 11 10  1  0  0  0  0
 12 17  1  1  0  0  0
 12 11  1  0  0  0  0
 15  9  1  0  0  0  0
 22  8  1  0  0  0  0
 22  1  1  0  0  0  0
M  END
>  <CHROM.1>
175.04494867,46.79360794,-61.62827879,17.30481784,-8.99409098,27.46185890
2.84496647,0.34767203,-2.78569700

>  <Name>
lig.pdb

>  <RI>
0

>  <Rbt.Current_Directory>
/home/itssahil/PROJECTS/Mol_Feturizer/New_Systems/rnas/5bxk

>  <Rbt.Executable>
rbdock ($Id: //depot/dev/client3/rdock/2013.1/src/exe/rbdock.cxx#4 $)

>  <Rbt.Library>
libRbt.so (2013.1, Build901 2013/11/27)

>  <Rbt.Parameter_File>
/export/apps/rDock/src/rDock_2013.1_src/data/scripts/dock_solv.prm

>  <Rbt.Receptor>
prm/pocket_docking_4.prm

>  <SCORE>
-6.61277

>  <SCORE.INTER>
-3.48223

>  <SCORE.INTER.CONST>
1

>  <SCORE.INTER.POLAR>
0

>  <SCORE.INTER.ROT>
3

>  <SCORE.INTER.SOLV>
15.95

>  <SCORE.INTER.VDW>
-13.2382

>  <SCORE.INTER.norm>
-0.158283

>  <SCORE.INTRA>
-3.13054

>  <SCORE.INTRA.DIHEDRAL>
-6.09288

>  <SCORE.INTRA.DIHEDRAL.0>
7.18044

>  <SCORE.INTRA.POLAR>
0

>  <SCORE.INTRA.POLAR.0>
0

>  <SCORE.INTRA.REPUL>
0

>  <SCORE.INTRA.REPUL.0>
0

>  <SCORE.INTRA.SOLV>
-0.785591

>  <SCORE.INTRA.SOLV.lig_0>
-72.0615

>  <SCORE.INTRA.VDW>
0.308698

>  <SCORE.INTRA.VDW.0>
-1.54792

>  <SCORE.INTRA.norm>
-0.142297

>  <SCORE.RESTR>
0

>  <SCORE.RESTR.CAVITY>
0

>  <SCORE.RESTR.norm>
0

>  <SCORE.SYSTEM>
0

>  <SCORE.SYSTEM.CONST>
0

>  <SCORE.SYSTEM.DIHEDRAL>
0

>  <SCORE.SYSTEM.SOLV>
0

>  <SCORE.SYSTEM.norm>
0

>  <SCORE.heavy>
22

>  <SCORE.norm>
-0.30058

>  <RMSD>
2.937

$$$$
lig.pdb
 OpenBabel11021811523D
libRbt.so/2013.1/901 2013/11/27
 22 23  0  0  0  0  0  0  0  0999 V2000
   16.3502   -7.6741   26.6045 C   0  0  1  0  0  0  0  0  0  0  0  0
   17.9687   -8.3239   28.3953 C   0  0  1  0  0  0  0  0  0  0  0  0
   19.3272   -8.0745   27.5113 C   0  0  1  0  0  0  0  0  0  0  0  0
   20.5230   -8.8884   28.2203 C   0  0  2  0  0  0  0  0  0  0  0  0
   15.0834   -6.7727   26.2485 C   0  0  1  0  0  0  0  0  0  0  0  0
   13.7874   -7.3366   26.9510 C   0  0  2  0  0  0  0  0  0  0  0  0
   13.5160   -8.8201   26.3961 C   0  0  1  0  0  0  0  0  0  0  0  0
   14.7446   -9.7983   26.7943 C   0  0  1  0  0  0  0  0  0  0  0  0
   14.5626  -11.2623   26.3063 C   0  0  0  0  0  0  0  0  0  0  0  0
   20.7340   -8.2621   29.6850 C   0  0  1  0  0  0  0  0  0  0  0  0
   19.3765   -8.5120   30.5175 C   0  0  0  0  0  0  0  0  0  0  0  0
   18.1530   -7.7701   29.8286 C   0  0  2  0  0  0  0  0  0  0  0  0
   12.3102   -9.4100   26.9874 F   0  0  0  0  0  0  0  0  0  0  0  0
   15.4442   -5.3514   26.7061 N   0  0  0  0  0  0  0  0  0  0  0  0
   15.6776  -12.1029   26.5474 N   0  0  0  0  0  0  0  0  0  0  0  0
   21.8278   -8.9847   30.4082 N   0  0  0  0  0  0  0  0  0  0  0  0
   16.9136   -8.0018   30.5642 N   0  0  0  0  0  0  0  0  0  0  0  0
   16.8543   -7.6312   27.8799 O   0  0  0  0  0  0  0  0  0  0  0  0
   19.1005   -8.6342   26.1432 O   0  0  0  0  0  0  0  0  0  0  0  0
   21.6775   -8.6810   27.4790 O   0  0  0  0  0  0  0  0  0  0  0  0
   12.8875   -6.6401   26.6503 O   0  0  0  0  0  0  0  0  0  0  0  0
   16.0496   -9.1522   26.1962 O   0  0  0  0  0  0  0  0  0  0  0  0
  1  5  1  0  0  0  0
  1 18  1  1  0  0  0
  2 18  1  6  0  0  0
  2  3  1  0  0  0  0
  2 12  1  0  0  0  0
  3 19  1  6  0  0  0
  3  4  1  0  0  0  0
  4 20  1  6  0  0  0
  4 10  1  0  0  0  0
  5  6  1  0  0  0  0
  5 14  1  1  0  0  0
  6 21  1  6  0  0  0
  7 13  1  1  0  0  0
  7  6  1  0  0  0  0
  8  9  1  6  0  0  0
  8  7  1  0  0  0  0
 10 16  1  1  0  0  0
 11 10  1  0  0  0  0
 12 17  1  1  0  0  0
 12 11  1  0  0  0  0
 15  9  1  0  0  0  0
 22  8  1  0  0  0  0
 22  1  1  0  0  0  0
M  END
>  <CHROM.1>
-178.88956084,54.05653755,174.93610905,16.88411371,-8.47288529,27.64651013
3.04053321,0.33467010,-2.84812058

>  <Name>
lig.pdb

>  <RI>
0

>  <Rbt.Current_Directory>
/home/itssahil/PROJECTS/Mol_Feturizer/New_Systems/rnas/5bxk

>  <Rbt.Executable>
rbdock ($Id: //depot/dev/client3/rdock/2013.1/src/exe/rbdock.cxx#4 $)

>  <Rbt.Library>
libRbt.so (2013.1, Build901 2013/11/27)

>  <Rbt.Parameter_File>
/export/apps/rDock/src/rDock_2013.1_src/data/scripts/dock_solv.prm

>  <Rbt.Receptor>
prm/pocket_docking_4.prm

>  <SCORE>
-6.71754

>  <SCORE.INTER>
-2.58489

>  <SCORE.INTER.CONST>
1

>  <SCORE.INTER.POLAR>
0

>  <SCORE.INTER.ROT>
3

>  <SCORE.INTER.SOLV>
13.24

>  <SCORE.INTER.VDW>
-11.7366

>  <SCORE.INTER.norm>
-0.117495

>  <SCORE.INTRA>
-4.13265

>  <SCORE.INTRA.DIHEDRAL>
-6.77506

>  <SCORE.INTRA.DIHEDRAL.0>
7.18044

>  <SCORE.INTRA.POLAR>
0

>  <SCORE.INTRA.POLAR.0>
0

>  <SCORE.INTRA.REPUL>
0

>  <SCORE.INTRA.REPUL.0>
0

>  <SCORE.INTRA.SOLV>
-1.75329

>  <SCORE.INTRA.SOLV.lig_0>
-72.0615

>  <SCORE.INTRA.VDW>
0.131528

>  <SCORE.INTRA.VDW.0>
-1.54792

>  <SCORE.INTRA.norm>
-0.187848

>  <SCORE.RESTR>
0

>  <SCORE.RESTR.CAVITY>
0

>  <SCORE.RESTR.norm>
0

>  <SCORE.SYSTEM>
0

>  <SCORE.SYSTEM.CONST>
0

>  <SCORE.SYSTEM.DIHEDRAL>
0

>  <SCORE.SYSTEM.SOLV>
0

>  <SCORE.SYSTEM.norm>
0

>  <SCORE.heavy>
22

>  <SCORE.norm>
-0.305343

>  <RMSD>
3.309

$$$$
lig.pdb
 OpenBabel11021811523D
libRbt.so/2013.1/901 2013/11/27
 22 23  0  0  0  0  0  0  0  0999 V2000
   17.5876  -10.1829   26.4365 C   0  0  1  0  0  0  0  0  0  0  0  0
   18.3780   -7.8487   26.0181 C   0  0  1  0  0  0  0  0  0  0  0  0
   17.1294   -6.8404   26.3547 C   0  0  1  0  0  0  0  0  0  0  0  0
   17.7562   -5.4292   26.8139 C   0  0  2  0  0  0  0  0  0  0  0  0
   16.8695  -11.4467   25.7798 C   0  0  1  0  0  0  0  0  0  0  0  0
   15.4002  -11.0797   25.3351 C   0  0  2  0  0  0  0  0  0  0  0  0
   14.5670  -10.6557   26.6422 C   0  0  1  0  0  0  0  0  0  0  0  0
   15.2140   -9.3291   27.3104 C   0  0  1  0  0  0  0  0  0  0  0  0
   14.4637   -8.8378   28.5793 C   0  0  0  0  0  0  0  0  0  0  0  0
   18.5941   -5.6862   28.1607 C   0  0  1  0  0  0  0  0  0  0  0  0
   19.8004   -6.6910   27.7951 C   0  0  0  0  0  0  0  0  0  0  0  0
   19.2332   -8.0843   27.2861 C   0  0  2  0  0  0  0  0  0  0  0  0
   13.1775  -10.3178   26.3158 F   0  0  0  0  0  0  0  0  0  0  0  0
   17.7647  -11.8682   24.6049 N   0  0  0  0  0  0  0  0  0  0  0  0
   13.1584   -8.3438   28.3334 N   0  0  0  0  0  0  0  0  0  0  0  0
   19.2183   -4.4116   28.6375 N   0  0  0  0  0  0  0  0  0  0  0  0
   20.3162   -8.9985   26.9360 N   0  0  0  0  0  0  0  0  0  0  0  0
   17.9454   -9.1328   25.6292 O   0  0  0  0  0  0  0  0  0  0  0  0
   16.3431   -6.6390   25.0987 O   0  0  0  0  0  0  0  0  0  0  0  0
   16.7055   -4.5702   27.1027 O   0  0  0  0  0  0  0  0  0  0  0  0
   14.9184  -12.0454   24.8654 O   0  0  0  0  0  0  0  0  0  0  0  0
   16.7175   -9.6702   27.6290 O   0  0  0  0  0  0  0  0  0  0  0  0
  1  5  1  0  0  0  0
  1 18  1  6  0  0  0
  2 18  1  1  0  0  0
  2  3  1  0  0  0  0
  2 12  1  0  0  0  0
  3 19  1  6  0  0  0
  3  4  1  0  0  0  0
  4 20  1  1  0  0  0
  4 10  1  0  0  0  0
  5  6  1  0  0  0  0
  5 14  1  6  0  0  0
  6 21  1  1  0  0  0
  7 13  1  6  0  0  0
  7  6  1  0  0  0  0
  8  9  1  1  0  0  0
  8  7  1  0  0  0  0
 10 16  1  6  0  0  0
 11 10  1  0  0  0  0
 12 17  1  6  0  0  0
 12 11  1  0  0  0  0
 15  9  1  0  0  0  0
 22  8  1  0  0  0  0
 22  1  1  0  0  0  0
M  END
>  <CHROM.1>
168.53073328,-83.35139459,-67.38602514,16.79915920,-8.57066608,26.68840656
-2.17196682,0.15291195,0.38507186

>  <Name>
lig.pdb

>  <RI>
0

>  <Rbt.Current_Directory>
/home/itssahil/PROJECTS/Mol_Feturizer/New_Systems/rnas/5bxk

>  <Rbt.Executable>
rbdock ($Id: //depot/dev/client3/rdock/2013.1/src/exe/rbdock.cxx#4 $)

>  <Rbt.Library>
libRbt.so (2013.1, Build901 2013/11/27)

>  <Rbt.Parameter_File>
/export/apps/rDock/src/rDock_2013.1_src/data/scripts/dock_solv.prm

>  <Rbt.Receptor>
prm/pocket_docking_3.prm

>  <SCORE>
-4.61078

>  <SCORE.INTER>
-3.45866

>  <SCORE.INTER.CONST>
1

>  <SCORE.INTER.POLAR>
0

>  <SCORE.INTER.ROT>
3

>  <SCORE.INTER.SOLV>
15.6891

>  <SCORE.INTER.VDW>
-13.1355

>  <SCORE.INTER.norm>
-0.157212

>  <SCORE.INTRA>
-1.15212

>  <SCORE.INTRA.DIHEDRAL>
-3.87336

>  <SCORE.INTRA.DIHEDRAL.0>
7.18044

>  <SCORE.INTRA.POLAR>
0

>  <SCORE.INTRA.POLAR.0>
0

>  <SCORE.INTRA.REPUL>
0

>  <SCORE.INTRA.REPUL.0>
0

>  <SCORE.INTRA.SOLV>
0.346806

>  <SCORE.INTRA.SOLV.lig_0>
-72.0615

>  <SCORE.INTRA.VDW>
0.611161

>  <SCORE.INTRA.VDW.0>
-1.54792

>  <SCORE.INTRA.norm>
-0.052369

>  <SCORE.RESTR>
0

>  <SCORE.RESTR.CAVITY>
0

>  <SCORE.RESTR.norm>
0

>  <SCORE.SYSTEM>
0

>  <SCORE.SYSTEM.CONST>
0

>  <SCORE.SYSTEM.DIHEDRAL>
0

>  <SCORE.SYSTEM.SOLV>
0

>  <SCORE.SYSTEM.norm>
0

>  <SCORE.heavy>
22

>  <SCORE.norm>
-0.209581

>  <RMSD>
3.320

$$$$
lig.pdb
 OpenBabel11021811523D
libRbt.so/2013.1/901 2013/11/27
 22 23  0  0  0  0  0  0  0  0999 V2000
   17.5859  -10.2489   26.4049 C   0  0  1  0  0  0  0  0  0  0  0  0
   18.3673   -7.9217   25.9334 C   0  0  1  0  0  0  0  0  0  0  0  0
   17.0911   -6.9281   26.2042 C   0  0  1  0  0  0  0  0  0  0  0  0
   17.6786   -5.4909   26.6339 C   0  0  2  0  0  0  0  0  0  0  0  0
   16.8483  -11.5144   25.7737 C   0  0  1  0  0  0  0  0  0  0  0  0
   15.3896  -11.1304   25.3089 C   0  0  2  0  0  0  0  0  0  0  0  0
   14.5554  -10.6587   26.5988 C   0  0  1  0  0  0  0  0  0  0  0  0
   15.2230   -9.3288   27.2395 C   0  0  1  0  0  0  0  0  0  0  0  0
   14.4732   -8.7923   28.4902 C   0  0  0  0  0  0  0  0  0  0  0  0
   18.4846   -5.6883   28.0099 C   0  0  1  0  0  0  0  0  0  0  0  0
   19.7191   -6.6801   27.7089 C   0  0  0  0  0  0  0  0  0  0  0  0
   19.1923   -8.0998   27.2305 C   0  0  2  0  0  0  0  0  0  0  0  0
   13.1750  -10.3025   26.2536 F   0  0  0  0  0  0  0  0  0  0  0  0
   17.7438  -11.9815   24.6162 N   0  0  0  0  0  0  0  0  0  0  0  0
   13.1644   -8.3159   28.2289 N   0  0  0  0  0  0  0  0  0  0  0  0
   19.0714   -4.3870   28.4615 N   0  0  0  0  0  0  0  0  0  0  0  0
   20.3014   -9.0031   26.9388 N   0  0  0  0  0  0  0  0  0  0  0  0
   17.9698   -9.2259   25.5750 O   0  0  0  0  0  0  0  0  0  0  0  0
   16.3354   -6.7825   24.9221 O   0  0  0  0  0  0  0  0  0  0  0  0
   16.6043   -4.6441   26.8670 O   0  0  0  0  0  0  0  0  0  0  0  0
   14.8928  -12.0980   24.8591 O   0  0  0  0  0  0  0  0  0  0  0  0
   16.7174   -9.6906   27.5778 O   0  0  0  0  0  0  0  0  0  0  0  0
  1  5  1  0  0  0  0
  1 18  1  6  0  0  0
  2 18  1  1  0  0  0
  2  3  1  0  0  0  0
  2 12  1  0  0  0  0
  3 19  1  6  0  0  0
  3  4  1  0  0  0  0
  4 20  1  1  0  0  0
  4 10  1  0  0  0  0
  5  6  1  0  0  0  0
  5 14  1  6  0  0  0
  6 21  1  1  0  0  0
  7 13  1  6  0  0  0
  7  6  1  0  0  0  0
  8  9  1  1  0  0  0
  8  7  1  0  0  0  0
 10 16  1  6  0  0  0
 11 10  1  0  0  0  0
 12 17  1  6  0  0  0
 12 11  1  0  0  0  0
 15  9  1  0  0  0  0
 22  8  1  0  0  0  0
 22  1  1  0  0  0  0
M  END
>  <CHROM.1>
165.43026724,-81.99982317,-65.61833767,16.76924838,-8.60746576,26.60489203
-2.15745786,0.13994652,0.35765051

>  <Name>
lig.pdb

>  <RI>
0

>  <Rbt.Current_Directory>
/home/itssahil/PROJECTS/Mol_Feturizer/New_Systems/rnas/5bxk

>  <Rbt.Executable>
rbdock ($Id: //depot/dev/client3/rdock/2013.1/src/exe/rbdock.cxx#4 $)

>  <Rbt.Library>
libRbt.so (2013.1, Build901 2013/11/27)

>  <Rbt.Parameter_File>
/export/apps/rDock/src/rDock_2013.1_src/data/scripts/dock_solv.prm

>  <Rbt.Receptor>
prm/pocket_docking_3.prm

>  <SCORE>
-4.70149

>  <SCORE.INTER>
-3.54457

>  <SCORE.INTER.CONST>
1

>  <SCORE.INTER.POLAR>
0

>  <SCORE.INTER.ROT>
3

>  <SCORE.INTER.SOLV>
15.7546

>  <SCORE.INTER.VDW>
-13.2146

>  <SCORE.INTER.norm>
-0.161117

>  <SCORE.INTRA>
-1.15692

>  <SCORE.INTRA.DIHEDRAL>
-3.83664

>  <SCORE.INTRA.DIHEDRAL.0>
7.18044

>  <SCORE.INTRA.POLAR>
0

>  <SCORE.INTRA.POLAR.0>
0

>  <SCORE.INTRA.REPUL>
0

>  <SCORE.INTRA.REPUL.0>
0

>  <SCORE.INTRA.SOLV>
0.39006

>  <SCORE.INTRA.SOLV.lig_0>
-72.0615

>  <SCORE.INTRA.VDW>
0.566369

>  <SCORE.INTRA.VDW.0>
-1.54792

>  <SCORE.INTRA.norm>
-0.0525873

>  <SCORE.RESTR>
0

>  <SCORE.RESTR.CAVITY>
0

>  <SCORE.RESTR.norm>
0

>  <SCORE.SYSTEM>
0

>  <SCORE.SYSTEM.CONST>
0

>  <SCORE.SYSTEM.DIHEDRAL>
0

>  <SCORE.SYSTEM.SOLV>
0

>  <SCORE.SYSTEM.norm>
0

>  <SCORE.heavy>
22

>  <SCORE.norm>
-0.213704

>  <RMSD>
3.354

$$$$
lig.pdb
 OpenBabel11021811523D
libRbt.so/2013.1/901 2013/11/27
 22 23  0  0  0  0  0  0  0  0999 V2000
   17.3009  -10.1175   26.5528 C   0  0  1  0  0  0  0  0  0  0  0  0
   18.2087   -7.8566   25.9937 C   0  0  1  0  0  0  0  0  0  0  0  0
   17.0357   -6.7641   26.3394 C   0  0  1  0  0  0  0  0  0  0  0  0
   17.7614   -5.3733   26.7056 C   0  0  2  0  0  0  0  0  0  0  0  0
   16.6108  -11.4303   25.9659 C   0  0  1  0  0  0  0  0  0  0  0  0
   15.1588  -11.1046   25.4395 C   0  0  2  0  0  0  0  0  0  0  0  0
   14.2756  -10.5880   26.6786 C   0  0  1  0  0  0  0  0  0  0  0  0
   14.8940   -9.2121   27.2696 C   0  0  1  0  0  0  0  0  0  0  0  0
   14.0948   -8.6309   28.4687 C   0  0  0  0  0  0  0  0  0  0  0  0
   18.6461   -5.6204   28.0240 C   0  0  1  0  0  0  0  0  0  0  0  0
   19.7758   -6.7082   27.6510 C   0  0  0  0  0  0  0  0  0  0  0  0
   19.1082   -8.0867   27.2317 C   0  0  2  0  0  0  0  0  0  0  0  0
   12.8989  -10.2823   26.2753 F   0  0  0  0  0  0  0  0  0  0  0  0
   17.5511  -11.9341   24.8606 N   0  0  0  0  0  0  0  0  0  0  0  0
   14.6484   -7.4507   29.0246 N   0  0  0  0  0  0  0  0  0  0  0  0
   19.3623   -4.3649   28.4140 N   0  0  0  0  0  0  0  0  0  0  0  0
   20.1207   -9.0764   26.8756 N   0  0  0  0  0  0  0  0  0  0  0  0
   17.6872   -9.1290   25.6832 O   0  0  0  0  0  0  0  0  0  0  0  0
   16.2036   -6.5716   25.1119 O   0  0  0  0  0  0  0  0  0  0  0  0
   16.7751   -4.4432   27.0016 O   0  0  0  0  0  0  0  0  0  0  0  0
   14.6973  -12.1050   25.0255 O   0  0  0  0  0  0  0  0  0  0  0  0
   16.3849   -9.5212   27.6697 O   0  0  0  0  0  0  0  0  0  0  0  0
  1  5  1  0  0  0  0
  1 18  1  6  0  0  0
  2 18  1  1  0  0  0
  2  3  1  0  0  0  0
  2 12  1  0  0  0  0
  3 19  1  6  0  0  0
  3  4  1  0  0  0  0
  4 20  1  1  0  0  0
  4 10  1  0  0  0  0
  5  6  1  0  0  0  0
  5 14  1  6  0  0  0
  6 21  1  1  0  0  0
  7 13  1  6  0  0  0
  7  6  1  0  0  0  0
  8  9  1  1  0  0  0
  8  7  1  0  0  0  0
 10 16  1  6  0  0  0
 11 10  1  0  0  0  0
 12 17  1  6  0  0  0
 12 11  1  0  0  0  0
 15  9  1  0  0  0  0
 22  8  1  0  0  0  0
 22  1  1  0  0  0  0
M  END
>  <CHROM.1>
174.39161938,-82.84966347,178.04160002,16.70251704,-8.49188147,26.71535467
-2.16227368,0.14988493,0.36071591

>  <Name>
lig.pdb

>  <RI>
0

>  <Rbt.Current_Directory>
/home/itssahil/PROJECTS/Mol_Feturizer/New_Systems/rnas/5bxk

>  <Rbt.Executable>
rbdock ($Id: //depot/dev/client3/rdock/2013.1/src/exe/rbdock.cxx#4 $)

>  <Rbt.Library>
libRbt.so (2013.1, Build901 2013/11/27)

>  <Rbt.Parameter_File>
/export/apps/rDock/src/rDock_2013.1_src/data/scripts/dock_solv.prm

>  <Rbt.Receptor>
prm/pocket_docking_3.prm

>  <SCORE>
-4.61551

>  <SCORE.INTER>
-2.96325

>  <SCORE.INTER.CONST>
1

>  <SCORE.INTER.POLAR>
0

>  <SCORE.INTER.ROT>
3

>  <SCORE.INTER.SOLV>
15.1016

>  <SCORE.INTER.VDW>
-12.6094

>  <SCORE.INTER.norm>
-0.134693

>  <SCORE.INTRA>
-1.65226

>  <SCORE.INTRA.DIHEDRAL>
-4.59978

>  <SCORE.INTRA.DIHEDRAL.0>
7.18044

>  <SCORE.INTRA.POLAR>
0

>  <SCORE.INTRA.POLAR.0>
0

>  <SCORE.INTRA.REPUL>
0

>  <SCORE.INTRA.REPUL.0>
0

>  <SCORE.INTRA.SOLV>
0.544339

>  <SCORE.INTRA.SOLV.lig_0>
-72.0615

>  <SCORE.INTRA.VDW>
0.375461

>  <SCORE.INTRA.VDW.0>
-1.54792

>  <SCORE.INTRA.norm>
-0.0751028

>  <SCORE.RESTR>
0

>  <SCORE.RESTR.CAVITY>
0

>  <SCORE.RESTR.norm>
0

>  <SCORE.SYSTEM>
0

>  <SCORE.SYSTEM.CONST>
0

>  <SCORE.SYSTEM.DIHEDRAL>
0

>  <SCORE.SYSTEM.SOLV>
0

>  <SCORE.SYSTEM.norm>
0

>  <SCORE.heavy>
22

>  <SCORE.norm>
-0.209796

>  <RMSD>
3.360

$$$$
lig.pdb
 OpenBabel11021811523D
libRbt.so/2013.1/901 2013/11/27
 22 23  0  0  0  0  0  0  0  0999 V2000
   18.1691  -10.0879   26.5844 C   0  0  1  0  0  0  0  0  0  0  0  0
   18.5036   -7.6547   27.0490 C   0  0  1  0  0  0  0  0  0  0  0  0
   19.7872   -7.6805   28.0693 C   0  0  1  0  0  0  0  0  0  0  0  0
   19.7514   -6.3179   28.9278 C   0  0  2  0  0  0  0  0  0  0  0  0
   17.9389  -11.1744   25.4395 C   0  0  1  0  0  0  0  0  0  0  0  0
   16.5688  -10.9171   24.6993 C   0  0  2  0  0  0  0  0  0  0  0  0
   15.3800  -11.0618   25.7708 C   0  0  1  0  0  0  0  0  0  0  0  0
   15.5256   -9.9312   26.9220 C   0  0  1  0  0  0  0  0  0  0  0  0
   14.4081   -9.9880   28.0002 C   0  0  0  0  0  0  0  0  0  0  0  0
   19.9276   -5.0937   27.9020 C   0  0  1  0  0  0  0  0  0  0  0  0
   18.6587   -5.1096   26.9080 C   0  0  0  0  0  0  0  0  0  0  0  0
   18.6192   -6.4596   26.0727 C   0  0  2  0  0  0  0  0  0  0  0  0
   14.0646  -10.8569   25.1549 F   0  0  0  0  0  0  0  0  0  0  0  0
   19.1552  -11.0594   24.5083 N   0  0  0  0  0  0  0  0  0  0  0  0
   13.1776   -9.4107   27.5992 N   0  0  0  0  0  0  0  0  0  0  0  0
   19.8898   -3.7892   28.6358 N   0  0  0  0  0  0  0  0  0  0  0  0
   17.4649   -6.4938   25.1796 N   0  0  0  0  0  0  0  0  0  0  0  0
   18.4484   -8.7945   26.2214 O   0  0  0  0  0  0  0  0  0  0  0  0
   19.6223   -8.8440   28.9941 O   0  0  0  0  0  0  0  0  0  0  0  0
   20.8362   -6.3309   29.7929 O   0  0  0  0  0  0  0  0  0  0  0  0
   16.4488  -11.7471   23.8735 O   0  0  0  0  0  0  0  0  0  0  0  0
   16.9512  -10.1191   27.5630 O   0  0  0  0  0  0  0  0  0  0  0  0
  1  5  1  0  0  0  0
  1 18  1  6  0  0  0
  2 18  1  6  0  0  0
  2  3  1  0  0  0  0
  2 12  1  0  0  0  0
  3 19  1  1  0  0  0
  3  4  1  0  0  0  0
  4 20  1  1  0  0  0
  4 10  1  0  0  0  0
  5  6  1  0  0  0  0
  5 14  1  6  0  0  0
  6 21  1  6  0  0  0
  7 13  1  6  0  0  0
  7  6  1  0  0  0  0
  8  9  1  1  0  0  0
  8  7  1  0  0  0  0
 10 16  1  1  0  0  0
 11 10  1  0  0  0  0
 12 17  1  6  0  0  0
 12 11  1  0  0  0  0
 15  9  1  0  0  0  0
 22  8  1  0  0  0  0
 22  1  1  0  0  0  0
M  END
>  <CHROM.1>
170.50867657,69.45825853,-78.83728598,17.65155021,-8.64023601,26.80318123
-2.22634494,0.20124840,0.64220323

>  <Name>
lig.pdb

>  <RI>
0

>  <Rbt.Current_Directory>
/home/itssahil/PROJECTS/Mol_Feturizer/New_Systems/rnas/5bxk

>  <Rbt.Executable>
rbdock ($Id: //depot/dev/client3/rdock/2013.1/src/exe/rbdock.cxx#4 $)

>  <Rbt.Library>
libRbt.so (2013.1, Build901 2013/11/27)

>  <Rbt.Parameter_File>
/export/apps/rDock/src/rDock_2013.1_src/data/scripts/dock_solv.prm

>  <Rbt.Receptor>
prm/pocket_docking_2.prm

>  <SCORE>
1.49625

>  <SCORE.INTER>
3.79237

>  <SCORE.INTER.CONST>
1

>  <SCORE.INTER.POLAR>
0

>  <SCORE.INTER.ROT>
3

>  <SCORE.INTER.SOLV>
23.9777

>  <SCORE.INTER.VDW>
-11.0643

>  <SCORE.INTER.norm>
0.172381

>  <SCORE.INTRA>
-3.02596

>  <SCORE.INTRA.DIHEDRAL>
-5.01369

>  <SCORE.INTRA.DIHEDRAL.0>
7.18044

>  <SCORE.INTRA.POLAR>
0

>  <SCORE.INTRA.POLAR.0>
0

>  <SCORE.INTRA.REPUL>
0

>  <SCORE.INTRA.REPUL.0>
0

>  <SCORE.INTRA.SOLV>
-0.94382

>  <SCORE.INTRA.SOLV.lig_0>
-72.0615

>  <SCORE.INTRA.VDW>
-0.0472072

>  <SCORE.INTRA.VDW.0>
-1.54792

>  <SCORE.INTRA.norm>
-0.137544

>  <SCORE.RESTR>
0.729842

>  <SCORE.RESTR.CAVITY>
0.729842

>  <SCORE.RESTR.norm>
0.0331746

>  <SCORE.SYSTEM>
0

>  <SCORE.SYSTEM.CONST>
0

>  <SCORE.SYSTEM.DIHEDRAL>
0

>  <SCORE.SYSTEM.SOLV>
0

>  <SCORE.SYSTEM.norm>
0

>  <SCORE.heavy>
22

>  <SCORE.norm>
0.0680115

>  <RMSD>
3.552

$$$$
lig.pdb
 OpenBabel11021811523D
libRbt.so/2013.1/901 2013/11/27
 22 23  0  0  0  0  0  0  0  0999 V2000
   14.7431   -8.4918   25.8486 C   0  0  1  0  0  0  0  0  0  0  0  0
   15.9895   -6.4916   26.6817 C   0  0  1  0  0  0  0  0  0  0  0  0
   16.8764   -6.2921   25.3168 C   0  0  1  0  0  0  0  0  0  0  0  0
   17.4015   -4.7692   25.2983 C   0  0  2  0  0  0  0  0  0  0  0  0
   13.8360   -9.7150   26.3229 C   0  0  1  0  0  0  0  0  0  0  0  0
   14.7368  -10.9275   26.7809 C   0  0  2  0  0  0  0  0  0  0  0  0
   15.6102  -11.4126   25.5223 C   0  0  1  0  0  0  0  0  0  0  0  0
   16.6050  -10.2270   25.0431 C   0  0  1  0  0  0  0  0  0  0  0  0
   17.5001  -10.6118   23.8327 C   0  0  0  0  0  0  0  0  0  0  0  0
   16.1124   -3.8127   25.2247 C   0  0  1  0  0  0  0  0  0  0  0  0
   15.2593   -4.0470   26.5722 C   0  0  0  0  0  0  0  0  0  0  0  0
   14.7602   -5.5517   26.6639 C   0  0  2  0  0  0  0  0  0  0  0  0
   16.4639  -12.5563   25.8609 F   0  0  0  0  0  0  0  0  0  0  0  0
   12.9530   -9.1630   27.4522 N   0  0  0  0  0  0  0  0  0  0  0  0
   18.4093  -11.6681   24.0890 N   0  0  0  0  0  0  0  0  0  0  0  0
   16.5299   -2.3750   25.2179 N   0  0  0  0  0  0  0  0  0  0  0  0
   13.9993   -5.7815   27.8884 N   0  0  0  0  0  0  0  0  0  0  0  0
   15.4514   -7.7899   26.7911 O   0  0  0  0  0  0  0  0  0  0  0  0
   18.0527   -7.2127   25.3885 O   0  0  0  0  0  0  0  0  0  0  0  0
   18.1519   -4.5914   24.1448 O   0  0  0  0  0  0  0  0  0  0  0  0
   14.0190  -11.7991   27.1130 O   0  0  0  0  0  0  0  0  0  0  0  0
   15.6995   -8.9818   24.7142 O   0  0  0  0  0  0  0  0  0  0  0  0
  1  5  1  0  0  0  0
  1 18  1  1  0  0  0
  2 18  1  6  0  0  0
  2  3  1  0  0  0  0
  2 12  1  0  0  0  0
  3 19  1  1  0  0  0
  3  4  1  0  0  0  0
  4 20  1  6  0  0  0
  4 10  1  0  0  0  0
  5  6  1  0  0  0  0
  5 14  1  1  0  0  0
  6 21  1  6  0  0  0
  7 13  1  1  0  0  0
  7  6  1  0  0  0  0
  8  9  1  6  0  0  0
  8  7  1  0  0  0  0
 10 16  1  1  0  0  0
 11 10  1  0  0  0  0
 12 17  1  1  0  0  0
 12 11  1  0  0  0  0
 15  9  1  0  0  0  0
 22  8  1  0  0  0  0
 22  1  1  0  0  0  0
M  END
>  <CHROM.1>
-160.22392806,-50.24492332,-63.52355485,15.89971803,-8.00476311,25.80079693
1.68291202,-0.61249895,-3.09257001

>  <Name>
lig.pdb

>  <RI>
0

>  <Rbt.Current_Directory>
/home/itssahil/PROJECTS/Mol_Feturizer/New_Systems/rnas/5bxk

>  <Rbt.Executable>
rbdock ($Id: //depot/dev/client3/rdock/2013.1/src/exe/rbdock.cxx#4 $)

>  <Rbt.Library>
libRbt.so (2013.1, Build901 2013/11/27)

>  <Rbt.Parameter_File>
/export/apps/rDock/src/rDock_2013.1_src/data/scripts/dock_solv.prm

>  <Rbt.Receptor>
prm/pocket_docking_5.prm

>  <SCORE>
-6.07825

>  <SCORE.INTER>
-4.34263

>  <SCORE.INTER.CONST>
1

>  <SCORE.INTER.POLAR>
0

>  <SCORE.INTER.ROT>
3

>  <SCORE.INTER.SOLV>
16.529

>  <SCORE.INTER.VDW>
-14.0047

>  <SCORE.INTER.norm>
-0.197392

>  <SCORE.INTRA>
-1.73562

>  <SCORE.INTRA.DIHEDRAL>
-4.84375

>  <SCORE.INTRA.DIHEDRAL.0>
7.18044

>  <SCORE.INTRA.POLAR>
0

>  <SCORE.INTRA.POLAR.0>
0

>  <SCORE.INTRA.REPUL>
0

>  <SCORE.INTRA.REPUL.0>
0

>  <SCORE.INTRA.SOLV>
1.42035

>  <SCORE.INTRA.SOLV.lig_0>
-72.0615

>  <SCORE.INTRA.VDW>
-0.0239206

>  <SCORE.INTRA.VDW.0>
-1.54792

>  <SCORE.INTRA.norm>
-0.0788917

>  <SCORE.RESTR>
0

>  <SCORE.RESTR.CAVITY>
0

>  <SCORE.RESTR.norm>
0

>  <SCORE.SYSTEM>
0

>  <SCORE.SYSTEM.CONST>
0

>  <SCORE.SYSTEM.DIHEDRAL>
0

>  <SCORE.SYSTEM.SOLV>
0

>  <SCORE.SYSTEM.norm>
0

>  <SCORE.heavy>
22

>  <SCORE.norm>
-0.276284

>  <RMSD>
3.869

$$$$
lig.pdb
 OpenBabel11021811523D
libRbt.so/2013.1/901 2013/11/27
 22 23  0  0  0  0  0  0  0  0999 V2000
   13.9880   -7.7181   25.9617 C   0  0  1  0  0  0  0  0  0  0  0  0
   15.7083   -6.1705   25.0162 C   0  0  1  0  0  0  0  0  0  0  0  0
   14.7945   -5.2736   23.9916 C   0  0  1  0  0  0  0  0  0  0  0  0
   15.7808   -4.6545   22.8784 C   0  0  2  0  0  0  0  0  0  0  0  0
   13.0816   -8.0302   27.2365 C   0  0  1  0  0  0  0  0  0  0  0  0
   13.9297   -8.7507   28.3559 C   0  0  2  0  0  0  0  0  0  0  0  0
   14.4609  -10.1484   27.7672 C   0  0  1  0  0  0  0  0  0  0  0  0
   15.4476   -9.8852   26.5094 C   0  0  1  0  0  0  0  0  0  0  0  0
   16.0204  -11.1854   25.8804 C   0  0  0  0  0  0  0  0  0  0  0  0
   16.8170   -3.6860   23.6335 C   0  0  1  0  0  0  0  0  0  0  0  0
   17.6848   -4.5978   24.6404 C   0  0  0  0  0  0  0  0  0  0  0  0
   16.7486   -5.2745   25.7302 C   0  0  2  0  0  0  0  0  0  0  0  0
   15.2448  -10.8933   28.7581 F   0  0  0  0  0  0  0  0  0  0  0  0
   12.5205   -6.6735   27.6883 N   0  0  0  0  0  0  0  0  0  0  0  0
   17.0010  -10.9696   24.8804 N   0  0  0  0  0  0  0  0  0  0  0  0
   17.7764   -3.0843   22.6542 N   0  0  0  0  0  0  0  0  0  0  0  0
   17.5205   -6.1165   26.6392 N   0  0  0  0  0  0  0  0  0  0  0  0
   14.9488   -6.7432   26.0566 O   0  0  0  0  0  0  0  0  0  0  0  0
   13.8157   -6.1853   23.3230 O   0  0  0  0  0  0  0  0  0  0  0  0
   15.0152   -3.8920   22.0078 O   0  0  0  0  0  0  0  0  0  0  0  0
   13.2131   -8.9611   29.2656 O   0  0  0  0  0  0  0  0  0  0  0  0
   14.6258   -9.0521   25.4562 O   0  0  0  0  0  0  0  0  0  0  0  0
  1  5  1  0  0  0  0
  1 18  1  1  0  0  0
  2 18  1  1  0  0  0
  2  3  1  0  0  0  0
  2 12  1  0  0  0  0
  3 19  1  6  0  0  0
  3  4  1  0  0  0  0
  4 20  1  6  0  0  0
  4 10  1  0  0  0  0
  5  6  1  0  0  0  0
  5 14  1  1  0  0  0
  6 21  1  1  0  0  0
  7 13  1  1  0  0  0
  7  6  1  0  0  0  0
  8  9  1  6  0  0  0
  8  7  1  0  0  0  0
 10 16  1  6  0  0  0
 11 10  1  0  0  0  0
 12 17  1  1  0  0  0
 12 11  1  0  0  0  0
 15  9  1  0  0  0  0
 22  8  1  0  0  0  0
 22  1  1  0  0  0  0
M  END
>  <CHROM.1>
-169.41581928,67.36223824,-173.16301613,15.25495834,-7.23879145,25.68539580
1.85841351,-0.58387497,2.64413589

>  <Name>
lig.pdb

>  <RI>
0

>  <Rbt.Current_Directory>
/home/itssahil/PROJECTS/Mol_Feturizer/New_Systems/rnas/5bxk

>  <Rbt.Executable>
rbdock ($Id: //depot/dev/client3/rdock/2013.1/src/exe/rbdock.cxx#4 $)

>  <Rbt.Library>
libRbt.so (2013.1, Build901 2013/11/27)

>  <Rbt.Parameter_File>
/export/apps/rDock/src/rDock_2013.1_src/data/scripts/dock_solv.prm

>  <Rbt.Receptor>
prm/pocket_docking_8.prm

>  <SCORE>
-7.07789

>  <SCORE.INTER>
-3.22467

>  <SCORE.INTER.CONST>
1

>  <SCORE.INTER.POLAR>
0

>  <SCORE.INTER.ROT>
3

>  <SCORE.INTER.SOLV>
12.3668

>  <SCORE.INTER.VDW>
-11.872

>  <SCORE.INTER.norm>
-0.146576

>  <SCORE.INTRA>
-3.85321

>  <SCORE.INTRA.DIHEDRAL>
-6.09345

>  <SCORE.INTRA.DIHEDRAL.0>
7.18044

>  <SCORE.INTRA.POLAR>
0

>  <SCORE.INTRA.POLAR.0>
0

>  <SCORE.INTRA.REPUL>
0

>  <SCORE.INTRA.REPUL.0>
0

>  <SCORE.INTRA.SOLV>
-1.70929

>  <SCORE.INTRA.SOLV.lig_0>
-72.0615

>  <SCORE.INTRA.VDW>
0.0481551

>  <SCORE.INTRA.VDW.0>
-1.54792

>  <SCORE.INTRA.norm>
-0.175146

>  <SCORE.RESTR>
0

>  <SCORE.RESTR.CAVITY>
0

>  <SCORE.RESTR.norm>
0

>  <SCORE.SYSTEM>
0

>  <SCORE.SYSTEM.CONST>
0

>  <SCORE.SYSTEM.DIHEDRAL>
0

>  <SCORE.SYSTEM.SOLV>
0

>  <SCORE.SYSTEM.norm>
0

>  <SCORE.heavy>
22

>  <SCORE.norm>
-0.321722

>  <RMSD>
4.693

$$$$
lig.pdb
 OpenBabel11021811523D
libRbt.so/2013.1/901 2013/11/27
 22 23  0  0  0  0  0  0  0  0999 V2000
   16.3094   -7.6858   27.2943 C   0  0  1  0  0  0  0  0  0  0  0  0
   16.3405   -5.3185   26.4922 C   0  0  1  0  0  0  0  0  0  0  0  0
   17.6859   -4.7506   27.2384 C   0  0  1  0  0  0  0  0  0  0  0  0
   17.5451   -3.1490   27.3384 C   0  0  2  0  0  0  0  0  0  0  0  0
   16.3699   -9.2181   26.8557 C   0  0  1  0  0  0  0  0  0  0  0  0
   15.0325   -9.6400   26.1312 C   0  0  2  0  0  0  0  0  0  0  0  0
   13.8183   -9.4656   27.1692 C   0  0  1  0  0  0  0  0  0  0  0  0
   13.6662   -7.9096   27.5940 C   0  0  1  0  0  0  0  0  0  0  0  0
   12.5048   -7.6436   28.5914 C   0  0  0  0  0  0  0  0  0  0  0  0
   17.4996   -2.5717   25.8395 C   0  0  1  0  0  0  0  0  0  0  0  0
   16.1757   -3.1620   25.1343 C   0  0  0  0  0  0  0  0  0  0  0  0
   16.2421   -4.7468   25.0575 C   0  0  2  0  0  0  0  0  0  0  0  0
   12.5354   -9.8592   26.5768 F   0  0  0  0  0  0  0  0  0  0  0  0
   17.6066   -9.3424   25.9530 N   0  0  0  0  0  0  0  0  0  0  0  0
   12.6327   -8.3162   29.8322 N   0  0  0  0  0  0  0  0  0  0  0  0
   17.3552   -1.0817   25.8590 N   0  0  0  0  0  0  0  0  0  0  0  0
   15.0409   -5.2955   24.4351 N   0  0  0  0  0  0  0  0  0  0  0  0
   16.3664   -6.7178   26.3235 O   0  0  0  0  0  0  0  0  0  0  0  0
   17.7282   -5.3236   28.6191 O   0  0  0  0  0  0  0  0  0  0  0  0
   18.6812   -2.6600   27.9674 O   0  0  0  0  0  0  0  0  0  0  0  0
   15.1299  -10.7753   25.8365 O   0  0  0  0  0  0  0  0  0  0  0  0
   15.0520   -7.4674   28.1960 O   0  0  0  0  0  0  0  0  0  0  0  0
  1  5  1  0  0  0  0
  1 18  1  6  0  0  0
  2 18  1  6  0  0  0
  2  3  1  0  0  0  0
  2 12  1  0  0  0  0
  3 19  1  1  0  0  0
  3  4  1  0  0  0  0
  4 20  1  1  0  0  0
  4 10  1  0  0  0  0
  5  6  1  0  0  0  0
  5 14  1  6  0  0  0
  6 21  1  1  0  0  0
  7 13  1  6  0  0  0
  7  6  1  0  0  0  0
  8  9  1  1  0  0  0
  8  7  1  0  0  0  0
 10 16  1  1  0  0  0
 11 10  1  0  0  0  0
 12 17  1  1  0  0  0
 12 11  1  0  0  0  0
 15  9  1  0  0  0  0
 22  8  1  0  0  0  0
 22  1  1  0  0  0  0
M  END
>  <CHROM.1>
-179.39958918,67.46576373,61.21921857,15.75248970,-6.51769666,26.85114832
-2.21566372,0.66030628,0.32792461

>  <Name>
lig.pdb

>  <RI>
0

>  <Rbt.Current_Directory>
/home/itssahil/PROJECTS/Mol_Feturizer/New_Systems/rnas/5bxk

>  <Rbt.Executable>
rbdock ($Id: //depot/dev/client3/rdock/2013.1/src/exe/rbdock.cxx#4 $)

>  <Rbt.Library>
libRbt.so (2013.1, Build901 2013/11/27)

>  <Rbt.Parameter_File>
/export/apps/rDock/src/rDock_2013.1_src/data/scripts/dock_solv.prm

>  <Rbt.Receptor>
prm/pocket_docking_7.prm

>  <SCORE>
-4.54488

>  <SCORE.INTER>
-0.789237

>  <SCORE.INTER.CONST>
1

>  <SCORE.INTER.POLAR>
0

>  <SCORE.INTER.ROT>
3

>  <SCORE.INTER.SOLV>
9.29713

>  <SCORE.INTER.VDW>
-9.2252

>  <SCORE.INTER.norm>
-0.0358744

>  <SCORE.INTRA>
-3.75565

>  <SCORE.INTRA.DIHEDRAL>
-6.76611

>  <SCORE.INTRA.DIHEDRAL.0>
7.18044

>  <SCORE.INTRA.POLAR>
0

>  <SCORE.INTRA.POLAR.0>
0

>  <SCORE.INTRA.REPUL>
0

>  <SCORE.INTRA.REPUL.0>
0

>  <SCORE.INTRA.SOLV>
-0.656768

>  <SCORE.INTRA.SOLV.lig_0>
-72.0615

>  <SCORE.INTRA.VDW>
-0.0442042

>  <SCORE.INTRA.VDW.0>
-1.54792

>  <SCORE.INTRA.norm>
-0.170711

>  <SCORE.RESTR>
0

>  <SCORE.RESTR.CAVITY>
0

>  <SCORE.RESTR.norm>
0

>  <SCORE.SYSTEM>
0

>  <SCORE.SYSTEM.CONST>
0

>  <SCORE.SYSTEM.DIHEDRAL>
0

>  <SCORE.SYSTEM.SOLV>
0

>  <SCORE.SYSTEM.norm>
0

>  <SCORE.heavy>
22

>  <SCORE.norm>
-0.206586

>  <RMSD>
5.002

$$$$
lig.pdb
 OpenBabel11021811523D
libRbt.so/2013.1/901 2013/11/27
 22 23  0  0  0  0  0  0  0  0999 V2000
   15.6252  -10.2145   26.4856 C   0  0  1  0  0  0  0  0  0  0  0  0
   14.5558   -7.9842   26.1236 C   0  0  1  0  0  0  0  0  0  0  0  0
   14.4588   -6.9639   24.8435 C   0  0  1  0  0  0  0  0  0  0  0  0
   13.9922   -5.5272   25.4032 C   0  0  2  0  0  0  0  0  0  0  0  0
   17.2190  -10.1538   26.4925 C   0  0  1  0  0  0  0  0  0  0  0  0
   17.7963  -10.6025   25.0937 C   0  0  2  0  0  0  0  0  0  0  0  0
   17.3561  -12.1253   24.8297 C   0  0  1  0  0  0  0  0  0  0  0  0
   15.7419  -12.2323   24.7417 C   0  0  1  0  0  0  0  0  0  0  0  0
   15.2236  -13.6729   24.4762 C   0  0  0  0  0  0  0  0  0  0  0  0
   12.5265   -5.7064   26.0369 C   0  0  1  0  0  0  0  0  0  0  0  0
   12.6585   -6.7250   27.2793 C   0  0  0  0  0  0  0  0  0  0  0  0
   13.1666   -8.1464   26.7859 C   0  0  2  0  0  0  0  0  0  0  0  0
   17.8734  -12.6274   23.5523 F   0  0  0  0  0  0  0  0  0  0  0  0
   17.5772   -8.7041   26.8527 N   0  0  0  0  0  0  0  0  0  0  0  0
   15.7428  -14.2753   23.3034 N   0  0  0  0  0  0  0  0  0  0  0  0
   12.0354   -4.4051   26.5909 N   0  0  0  0  0  0  0  0  0  0  0  0
   13.3060   -9.0742   27.9043 N   0  0  0  0  0  0  0  0  0  0  0  0
   14.9319   -9.2895   25.7465 O   0  0  0  0  0  0  0  0  0  0  0  0
   15.8243   -6.8350   24.2475 O   0  0  0  0  0  0  0  0  0  0  0  0
   13.9057   -4.6577   24.3253 O   0  0  0  0  0  0  0  0  0  0  0  0
   18.9702  -10.5444   25.1576 O   0  0  0  0  0  0  0  0  0  0  0  0
   15.1760  -11.6591   26.0944 O   0  0  0  0  0  0  0  0  0  0  0  0
  1  5  1  0  0  0  0
  1 18  1  6  0  0  0
  2 18  1  6  0  0  0
  2  3  1  0  0  0  0
  2 12  1  0  0  0  0
  3 19  1  1  0  0  0
  3  4  1  0  0  0  0
  4 20  1  6  0  0  0
  4 10  1  0  0  0  0
  5  6  1  0  0  0  0
  5 14  1  6  0  0  0
  6 21  1  1  0  0  0
  7 13  1  6  0  0  0
  7  6  1  0  0  0  0
  8  9  1  1  0  0  0
  8  7  1  0  0  0  0
 10 16  1  1  0  0  0
 11 10  1  0  0  0  0
 12 17  1  1  0  0  0
 12 11  1  0  0  0  0
 15  9  1  0  0  0  0
 22  8  1  0  0  0  0
 22  1  1  0  0  0  0
M  END
>  <CHROM.1>
-84.52578541,150.54854160,-56.62017766,15.31539955,-9.23069721,25.51205582
1.03735386,-0.37214195,3.13903589

>  <Name>
lig.pdb

>  <RI>
0

>  <Rbt.Current_Directory>
/home/itssahil/PROJECTS/Mol_Feturizer/New_Systems/rnas/5bxk

>  <Rbt.Executable>
rbdock ($Id: //depot/dev/client3/rdock/2013.1/src/exe/rbdock.cxx#4 $)

>  <Rbt.Library>
libRbt.so (2013.1, Build901 2013/11/27)

>  <Rbt.Parameter_File>
/export/apps/rDock/src/rDock_2013.1_src/data/scripts/dock_solv.prm

>  <Rbt.Receptor>
prm/pocket_docking_5.prm

>  <SCORE>
-5.75791

>  <SCORE.INTER>
-6.30828

>  <SCORE.INTER.CONST>
1

>  <SCORE.INTER.POLAR>
0

>  <SCORE.INTER.ROT>
3

>  <SCORE.INTER.SOLV>
14.5162

>  <SCORE.INTER.VDW>
-14.6443

>  <SCORE.INTER.norm>
-0.28674

>  <SCORE.INTRA>
0.550369

>  <SCORE.INTRA.DIHEDRAL>
-1.02073

>  <SCORE.INTRA.DIHEDRAL.0>
7.18044

>  <SCORE.INTRA.POLAR>
0

>  <SCORE.INTRA.POLAR.0>
0

>  <SCORE.INTRA.REPUL>
0

>  <SCORE.INTRA.REPUL.0>
0

>  <SCORE.INTRA.SOLV>
1.71518

>  <SCORE.INTRA.SOLV.lig_0>
-72.0615

>  <SCORE.INTRA.VDW>
0.203141

>  <SCORE.INTRA.VDW.0>
-1.54792

>  <SCORE.INTRA.norm>
0.0250168

>  <SCORE.RESTR>
0

>  <SCORE.RESTR.CAVITY>
0

>  <SCORE.RESTR.norm>
0

>  <SCORE.SYSTEM>
0

>  <SCORE.SYSTEM.CONST>
0

>  <SCORE.SYSTEM.DIHEDRAL>
0

>  <SCORE.SYSTEM.SOLV>
0

>  <SCORE.SYSTEM.norm>
0

>  <SCORE.heavy>
22

>  <SCORE.norm>
-0.261723

>  <RMSD>
5.195

$$$$
lig.pdb
 OpenBabel11021811523D
libRbt.so/2013.1/901 2013/11/27
 22 23  0  0  0  0  0  0  0  0999 V2000
   15.2752   -9.7201   27.1043 C   0  0  1  0  0  0  0  0  0  0  0  0
   13.8839   -7.6532   26.9018 C   0  0  1  0  0  0  0  0  0  0  0  0
   13.1863   -6.8309   25.6663 C   0  0  1  0  0  0  0  0  0  0  0  0
   12.7241   -5.3975   26.2381 C   0  0  2  0  0  0  0  0  0  0  0  0
   16.8063   -9.3965   26.7963 C   0  0  1  0  0  0  0  0  0  0  0  0
   17.1655   -9.7827   25.3086 C   0  0  2  0  0  0  0  0  0  0  0  0
   16.9437  -11.3641   25.1288 C   0  0  1  0  0  0  0  0  0  0  0  0
   15.3848  -11.7390   25.3612 C   0  0  1  0  0  0  0  0  0  0  0  0
   15.0735  -13.2523   25.1960 C   0  0  0  0  0  0  0  0  0  0  0  0
   11.6198   -5.6622   27.3750 C   0  0  1  0  0  0  0  0  0  0  0  0
   12.3362   -6.4837   28.5626 C   0  0  0  0  0  0  0  0  0  0  0  0
   12.8575   -7.8883   28.0359 C   0  0  2  0  0  0  0  0  0  0  0  0
   17.2776  -11.8095   23.7717 F   0  0  0  0  0  0  0  0  0  0  0  0
   16.9798   -7.8980   27.0861 N   0  0  0  0  0  0  0  0  0  0  0  0
   15.4077  -13.7837   23.9255 N   0  0  0  0  0  0  0  0  0  0  0  0
   11.1543   -4.3657   27.9614 N   0  0  0  0  0  0  0  0  0  0  0  0
   13.5231   -8.6360   29.0985 N   0  0  0  0  0  0  0  0  0  0  0  0
   14.3055   -8.9436   26.5217 O   0  0  0  0  0  0  0  0  0  0  0  0
   14.2192   -6.6226   24.6052 O   0  0  0  0  0  0  0  0  0  0  0  0
   12.1307   -4.6956   25.1986 O   0  0  0  0  0  0  0  0  0  0  0  0
   18.3024   -9.5295   25.1394 O   0  0  0  0  0  0  0  0  0  0  0  0
   15.0068  -11.2295   26.8021 O   0  0  0  0  0  0  0  0  0  0  0  0
  1  5  1  0  0  0  0
  1 18  1  6  0  0  0
  2 18  1  6  0  0  0
  2  3  1  0  0  0  0
  2 12  1  0  0  0  0
  3 19  1  6  0  0  0
  3  4  1  0  0  0  0
  4 20  1  6  0  0  0
  4 10  1  0  0  0  0
  5  6  1  0  0  0  0
  5 14  1  6  0  0  0
  6 21  1  1  0  0  0
  7 13  1  6  0  0  0
  7  6  1  0  0  0  0
  8  9  1  1  0  0  0
  8  7  1  0  0  0  0
 10 16  1  1  0  0  0
 11 10  1  0  0  0  0
 12 17  1  1  0  0  0
 12 11  1  0  0  0  0
 15  9  1  0  0  0  0
 22  8  1  0  0  0  0
 22  1  1  0  0  0  0
M  END
>  <CHROM.1>
-78.09079062,156.63755683,-58.51455959,14.66542773,-8.79627374,26.19990661
0.78131948,-0.69037763,2.90697956

>  <Name>
lig.pdb

>  <RI>
0

>  <Rbt.Current_Directory>
/home/itssahil/PROJECTS/Mol_Feturizer/New_Systems/rnas/5bxk

>  <Rbt.Executable>
rbdock ($Id: //depot/dev/client3/rdock/2013.1/src/exe/rbdock.cxx#4 $)

>  <Rbt.Library>
libRbt.so (2013.1, Build901 2013/11/27)

>  <Rbt.Parameter_File>
/export/apps/rDock/src/rDock_2013.1_src/data/scripts/dock_solv.prm

>  <Rbt.Receptor>
prm/pocket_docking_6.prm

>  <SCORE>
-5.97795

>  <SCORE.INTER>
-5.74355

>  <SCORE.INTER.CONST>
1

>  <SCORE.INTER.POLAR>
0

>  <SCORE.INTER.ROT>
3

>  <SCORE.INTER.SOLV>
13.4714

>  <SCORE.INTER.VDW>
-13.9195

>  <SCORE.INTER.norm>
-0.261071

>  <SCORE.INTRA>
-0.234395

>  <SCORE.INTRA.DIHEDRAL>
-3.22096

>  <SCORE.INTRA.DIHEDRAL.0>
7.18044

>  <SCORE.INTRA.POLAR>
0

>  <SCORE.INTRA.POLAR.0>
0

>  <SCORE.INTRA.REPUL>
0

>  <SCORE.INTRA.REPUL.0>
0

>  <SCORE.INTRA.SOLV>
2.08834

>  <SCORE.INTRA.SOLV.lig_0>
-72.0615

>  <SCORE.INTRA.VDW>
0.331913

>  <SCORE.INTRA.VDW.0>
-1.54792

>  <SCORE.INTRA.norm>
-0.0106543

>  <SCORE.RESTR>
0

>  <SCORE.RESTR.CAVITY>
0

>  <SCORE.RESTR.norm>
0

>  <SCORE.SYSTEM>
0

>  <SCORE.SYSTEM.CONST>
0

>  <SCORE.SYSTEM.DIHEDRAL>
0

>  <SCORE.SYSTEM.SOLV>
0

>  <SCORE.SYSTEM.norm>
0

>  <SCORE.heavy>
22

>  <SCORE.norm>
-0.271725

>  <RMSD>
5.492

$$$$
lig.pdb
 OpenBabel11021811523D
libRbt.so/2013.1/901 2013/11/27
 22 23  0  0  0  0  0  0  0  0999 V2000
   14.5312  -10.1829   26.0564 C   0  0  1  0  0  0  0  0  0  0  0  0
   14.1749   -9.2305   28.3399 C   0  0  1  0  0  0  0  0  0  0  0  0
   12.6638   -8.6289   28.1304 C   0  0  1  0  0  0  0  0  0  0  0  0
   12.4346   -7.4936   29.2500 C   0  0  2  0  0  0  0  0  0  0  0  0
   15.3576  -11.2881   25.2566 C   0  0  1  0  0  0  0  0  0  0  0  0
   16.9071  -11.0956   25.4872 C   0  0  2  0  0  0  0  0  0  0  0  0
   17.3272   -9.6516   24.9208 C   0  0  1  0  0  0  0  0  0  0  0  0
   16.5679   -8.4846   25.7494 C   0  0  1  0  0  0  0  0  0  0  0  0
   16.9235   -7.0480   25.2759 C   0  0  0  0  0  0  0  0  0  0  0  0
   12.5150   -8.2071   30.6876 C   0  0  1  0  0  0  0  0  0  0  0  0
   14.0058   -8.7980   30.8510 C   0  0  0  0  0  0  0  0  0  0  0  0
   14.3008   -9.8885   29.7349 C   0  0  2  0  0  0  0  0  0  0  0  0
   18.7640   -9.4022   25.0788 F   0  0  0  0  0  0  0  0  0  0  0  0
   14.8387  -12.6419   25.7646 N   0  0  0  0  0  0  0  0  0  0  0  0
   18.2556   -6.6527   25.5539 N   0  0  0  0  0  0  0  0  0  0  0  0
   12.3228   -7.2016   31.7800 N   0  0  0  0  0  0  0  0  0  0  0  0
   15.6544  -10.4204   29.8618 N   0  0  0  0  0  0  0  0  0  0  0  0
   14.4782  -10.2595   27.4253 O   0  0  0  0  0  0  0  0  0  0  0  0
   12.5985   -7.9982   26.7760 O   0  0  0  0  0  0  0  0  0  0  0  0
   11.1566   -6.9803   29.0808 O   0  0  0  0  0  0  0  0  0  0  0  0
   17.4651  -11.9299   24.8724 O   0  0  0  0  0  0  0  0  0  0  0  0
   15.0247   -8.7667   25.6173 O   0  0  0  0  0  0  0  0  0  0  0  0
  1  5  1  0  0  0  0
  1 18  1  1  0  0  0
  2 18  1  6  0  0  0
  2  3  1  0  0  0  0
  2 12  1  0  0  0  0
  3 19  1  6  0  0  0
  3  4  1  0  0  0  0
  4 20  1  6  0  0  0
  4 10  1  0  0  0  0
  5  6  1  0  0  0  0
  5 14  1  1  0  0  0
  6 21  1  6  0  0  0
  7 13  1  1  0  0  0
  7  6  1  0  0  0  0
  8  9  1  6  0  0  0
  8  7  1  0  0  0  0
 10 16  1  1  0  0  0
 11 10  1  0  0  0  0
 12 17  1  1  0  0  0
 12 11  1  0  0  0  0
 15  9  1  0  0  0  0
 22  8  1  0  0  0  0
 22  1  1  0  0  0  0
M  END
>  <CHROM.1>
159.27921457,61.47121416,-68.47426653,14.96552349,-9.18918416,27.28794340
0.34367548,-0.78345801,-3.05308932

>  <Name>
lig.pdb

>  <RI>
0

>  <Rbt.Current_Directory>
/home/itssahil/PROJECTS/Mol_Feturizer/New_Systems/rnas/5bxk

>  <Rbt.Executable>
rbdock ($Id: //depot/dev/client3/rdock/2013.1/src/exe/rbdock.cxx#4 $)

>  <Rbt.Library>
libRbt.so (2013.1, Build901 2013/11/27)

>  <Rbt.Parameter_File>
/export/apps/rDock/src/rDock_2013.1_src/data/scripts/dock_solv.prm

>  <Rbt.Receptor>
prm/pocket_docking_7.prm

>  <SCORE>
-8.40862

>  <SCORE.INTER>
-5.57362

>  <SCORE.INTER.CONST>
1

>  <SCORE.INTER.POLAR>
0

>  <SCORE.INTER.ROT>
3

>  <SCORE.INTER.SOLV>
20.4218

>  <SCORE.INTER.VDW>
-16.123

>  <SCORE.INTER.norm>
-0.253346

>  <SCORE.INTRA>
-2.835

>  <SCORE.INTRA.DIHEDRAL>
-4.93321

>  <SCORE.INTRA.DIHEDRAL.0>
7.18044

>  <SCORE.INTRA.POLAR>
0

>  <SCORE.INTRA.POLAR.0>
0

>  <SCORE.INTRA.REPUL>
0

>  <SCORE.INTRA.REPUL.0>
0

>  <SCORE.INTRA.SOLV>
-0.870905

>  <SCORE.INTRA.SOLV.lig_0>
-72.0615

>  <SCORE.INTRA.VDW>
0.0670524

>  <SCORE.INTRA.VDW.0>
-1.54792

>  <SCORE.INTRA.norm>
-0.128864

>  <SCORE.RESTR>
0

>  <SCORE.RESTR.CAVITY>
0

>  <SCORE.RESTR.norm>
0

>  <SCORE.SYSTEM>
0

>  <SCORE.SYSTEM.CONST>
0

>  <SCORE.SYSTEM.DIHEDRAL>
0

>  <SCORE.SYSTEM.SOLV>
0

>  <SCORE.SYSTEM.norm>
0

>  <SCORE.heavy>
22

>  <SCORE.norm>
-0.38221

>  <RMSD>
5.702

$$$$
lig.pdb
 OpenBabel11021811523D
libRbt.so/2013.1/901 2013/11/27
 22 23  0  0  0  0  0  0  0  0999 V2000
   13.0987   -8.0649   27.0956 C   0  0  1  0  0  0  0  0  0  0  0  0
   14.1681   -6.7293   25.2733 C   0  0  1  0  0  0  0  0  0  0  0  0
   13.0326   -5.6823   24.7222 C   0  0  1  0  0  0  0  0  0  0  0  0
   13.4122   -5.3124   23.2009 C   0  0  2  0  0  0  0  0  0  0  0  0
   12.8511   -8.1552   28.6687 C   0  0  1  0  0  0  0  0  0  0  0  0
   14.1374   -8.7031   29.4012 C   0  0  2  0  0  0  0  0  0  0  0  0
   14.4366  -10.1853   28.8572 C   0  0  1  0  0  0  0  0  0  0  0  0
   14.7665  -10.1419   27.2716 C   0  0  1  0  0  0  0  0  0  0  0  0
   15.0805  -11.5350   26.6592 C   0  0  0  0  0  0  0  0  0  0  0  0
   14.8367   -4.5693   23.2235 C   0  0  1  0  0  0  0  0  0  0  0  0
   15.9218   -5.6215   23.7837 C   0  0  0  0  0  0  0  0  0  0  0  0
   15.5628   -6.0588   25.2676 C   0  0  2  0  0  0  0  0  0  0  0  0
   15.6110  -10.7766   29.5073 F   0  0  0  0  0  0  0  0  0  0  0  0
   12.4680   -6.7347   29.1103 N   0  0  0  0  0  0  0  0  0  0  0  0
   15.5188  -11.4973   25.3121 N   0  0  0  0  0  0  0  0  0  0  0  0
   15.2581   -4.2077   21.8332 N   0  0  0  0  0  0  0  0  0  0  0  0
   16.5295   -7.0246   25.7813 N   0  0  0  0  0  0  0  0  0  0  0  0
   13.9517   -7.1037   26.6150 O   0  0  0  0  0  0  0  0  0  0  0  0
   11.7101   -6.3801   24.7390 O   0  0  0  0  0  0  0  0  0  0  0  0
   12.4566   -4.4247   22.7273 O   0  0  0  0  0  0  0  0  0  0  0  0
   13.8972   -8.7543   30.5523 O   0  0  0  0  0  0  0  0  0  0  0  0
   13.5264   -9.4728   26.5696 O   0  0  0  0  0  0  0  0  0  0  0  0
  1  5  1  0  0  0  0
  1 18  1  1  0  0  0
  2 18  1  1  0  0  0
  2  3  1  0  0  0  0
  2 12  1  0  0  0  0
  3 19  1  6  0  0  0
  3  4  1  0  0  0  0
  4 20  1  1  0  0  0
  4 10  1  0  0  0  0
  5  6  1  0  0  0  0
  5 14  1  1  0  0  0
  6 21  1  1  0  0  0
  7 13  1  1  0  0  0
  7  6  1  0  0  0  0
  8  9  1  6  0  0  0
  8  7  1  0  0  0  0
 10 16  1  6  0  0  0
 11 10  1  0  0  0  0
 12 17  1  6  0  0  0
 12 11  1  0  0  0  0
 15  9  1  0  0  0  0
 22  8  1  0  0  0  0
 22  1  1  0  0  0  0
M  END
>  <CHROM.1>
-170.39234038,82.02532201,-173.17014741,14.18577824,-7.64354654,26.24056848
1.48889981,-0.82364665,2.24757018

>  <Name>
lig.pdb

>  <RI>
0

>  <Rbt.Current_Directory>
/home/itssahil/PROJECTS/Mol_Feturizer/New_Systems/rnas/5bxk

>  <Rbt.Executable>
rbdock ($Id: //depot/dev/client3/rdock/2013.1/src/exe/rbdock.cxx#4 $)

>  <Rbt.Library>
libRbt.so (2013.1, Build901 2013/11/27)

>  <Rbt.Parameter_File>
/export/apps/rDock/src/rDock_2013.1_src/data/scripts/dock_solv.prm

>  <Rbt.Receptor>
prm/pocket_docking_7.prm

>  <SCORE>
-8.29316

>  <SCORE.INTER>
-5.39927

>  <SCORE.INTER.CONST>
1

>  <SCORE.INTER.POLAR>
0

>  <SCORE.INTER.ROT>
3

>  <SCORE.INTER.SOLV>
14.5871

>  <SCORE.INTER.VDW>
-14.0619

>  <SCORE.INTER.norm>
-0.245421

>  <SCORE.INTRA>
-2.8939

>  <SCORE.INTRA.DIHEDRAL>
-4.30726

>  <SCORE.INTRA.DIHEDRAL.0>
7.18044

>  <SCORE.INTRA.POLAR>
0

>  <SCORE.INTRA.POLAR.0>
0

>  <SCORE.INTRA.REPUL>
0

>  <SCORE.INTRA.REPUL.0>
0

>  <SCORE.INTRA.SOLV>
-1.2375

>  <SCORE.INTRA.SOLV.lig_0>
-72.0615

>  <SCORE.INTRA.VDW>
-0.121518

>  <SCORE.INTRA.VDW.0>
-1.54792

>  <SCORE.INTRA.norm>
-0.131541

>  <SCORE.RESTR>
0

>  <SCORE.RESTR.CAVITY>
0

>  <SCORE.RESTR.norm>
0

>  <SCORE.SYSTEM>
0

>  <SCORE.SYSTEM.CONST>
0

>  <SCORE.SYSTEM.DIHEDRAL>
0

>  <SCORE.SYSTEM.SOLV>
0

>  <SCORE.SYSTEM.norm>
0

>  <SCORE.heavy>
22

>  <SCORE.norm>
-0.376962

>  <RMSD>
5.724

$$$$
lig.pdb
 OpenBabel11021811523D
libRbt.so/2013.1/901 2013/11/27
 22 23  0  0  0  0  0  0  0  0999 V2000
   15.0182   -9.7594   26.0884 C   0  0  1  0  0  0  0  0  0  0  0  0
   14.4015   -9.1175   28.4243 C   0  0  1  0  0  0  0  0  0  0  0  0
   12.8795   -8.5856   28.1248 C   0  0  1  0  0  0  0  0  0  0  0  0
   12.4559   -7.6185   29.3415 C   0  0  2  0  0  0  0  0  0  0  0  0
   15.6506  -10.8982   25.1679 C   0  0  1  0  0  0  0  0  0  0  0  0
   17.1908  -11.0634   25.4710 C   0  0  2  0  0  0  0  0  0  0  0  0
   17.9259   -9.6769   25.1254 C   0  0  1  0  0  0  0  0  0  0  0  0
   17.3698   -8.4960   26.0850 C   0  0  1  0  0  0  0  0  0  0  0  0
   18.0349   -7.1153   25.8283 C   0  0  0  0  0  0  0  0  0  0  0  0
   12.4425   -8.5037   30.6825 C   0  0  1  0  0  0  0  0  0  0  0  0
   13.9483   -9.0203   30.9355 C   0  0  0  0  0  0  0  0  0  0  0  0
   14.4336   -9.9396   29.7350 C   0  0  2  0  0  0  0  0  0  0  0  0
   19.3716   -9.7542   25.3611 F   0  0  0  0  0  0  0  0  0  0  0  0
   14.8405  -12.1690   25.4653 N   0  0  0  0  0  0  0  0  0  0  0  0
   17.5973   -6.0840   26.6961 N   0  0  0  0  0  0  0  0  0  0  0  0
   12.0679   -7.6593   31.8607 N   0  0  0  0  0  0  0  0  0  0  0  0
   15.8026  -10.4013   29.9441 N   0  0  0  0  0  0  0  0  0  0  0  0
   14.8701  -10.0012   27.4309 O   0  0  0  0  0  0  0  0  0  0  0  0
   12.9055   -7.7922   26.8575 O   0  0  0  0  0  0  0  0  0  0  0  0
   11.1675   -7.1653   29.0966 O   0  0  0  0  0  0  0  0  0  0  0  0
   17.6045  -11.9079   24.7632 O   0  0  0  0  0  0  0  0  0  0  0  0
   15.8120   -8.4317   25.8671 O   0  0  0  0  0  0  0  0  0  0  0  0
  1  5  1  0  0  0  0
  1 18  1  1  0  0  0
  2 18  1  6  0  0  0
  2  3  1  0  0  0  0
  2 12  1  0  0  0  0
  3 19  1  6  0  0  0
  3  4  1  0  0  0  0
  4 20  1  6  0  0  0
  4 10  1  0  0  0  0
  5  6  1  0  0  0  0
  5 14  1  1  0  0  0
  6 21  1  6  0  0  0
  7 13  1  1  0  0  0
  7  6  1  0  0  0  0
  8  9  1  6  0  0  0
  8  7  1  0  0  0  0
 10 16  1  1  0  0  0
 11 10  1  0  0  0  0
 12 17  1  1  0  0  0
 12 11  1  0  0  0  0
 15  9  1  0  0  0  0
 22  8  1  0  0  0  0
 22  1  1  0  0  0  0
M  END
>  <CHROM.1>
176.54030249,59.36465043,-177.60383940,15.22321849,-9.14356902,27.41726776
0.43980429,-0.66474863,-2.85331613

>  <Name>
lig.pdb

>  <RI>
0

>  <Rbt.Current_Directory>
/home/itssahil/PROJECTS/Mol_Feturizer/New_Systems/rnas/5bxk

>  <Rbt.Executable>
rbdock ($Id: //depot/dev/client3/rdock/2013.1/src/exe/rbdock.cxx#4 $)

>  <Rbt.Library>
libRbt.so (2013.1, Build901 2013/11/27)

>  <Rbt.Parameter_File>
/export/apps/rDock/src/rDock_2013.1_src/data/scripts/dock_solv.prm

>  <Rbt.Receptor>
prm/pocket_docking_7.prm

>  <SCORE>
-9.34894

>  <SCORE.INTER>
-5.0213

>  <SCORE.INTER.CONST>
1

>  <SCORE.INTER.POLAR>
0

>  <SCORE.INTER.ROT>
3

>  <SCORE.INTER.SOLV>
16.6043

>  <SCORE.INTER.VDW>
-14.4823

>  <SCORE.INTER.norm>
-0.228241

>  <SCORE.INTRA>
-4.32764

>  <SCORE.INTRA.DIHEDRAL>
-6.96508

>  <SCORE.INTRA.DIHEDRAL.0>
7.18044

>  <SCORE.INTRA.POLAR>
0

>  <SCORE.INTRA.POLAR.0>
0

>  <SCORE.INTRA.REPUL>
0

>  <SCORE.INTRA.REPUL.0>
0

>  <SCORE.INTRA.SOLV>
-1.84552

>  <SCORE.INTRA.SOLV.lig_0>
-72.0615

>  <SCORE.INTRA.VDW>
0.0776629

>  <SCORE.INTRA.VDW.0>
-1.54792

>  <SCORE.INTRA.norm>
-0.196711

>  <SCORE.RESTR>
0

>  <SCORE.RESTR.CAVITY>
0

>  <SCORE.RESTR.norm>
0

>  <SCORE.SYSTEM>
0

>  <SCORE.SYSTEM.CONST>
0

>  <SCORE.SYSTEM.DIHEDRAL>
0

>  <SCORE.SYSTEM.SOLV>
0

>  <SCORE.SYSTEM.norm>
0

>  <SCORE.heavy>
22

>  <SCORE.norm>
-0.424952

>  <RMSD>
5.741

$$$$
lig.pdb
 OpenBabel11021811523D
libRbt.so/2013.1/901 2013/11/27
 22 23  0  0  0  0  0  0  0  0999 V2000
   14.9713   -9.7837   26.0772 C   0  0  1  0  0  0  0  0  0  0  0  0
   14.3677   -9.1448   28.4173 C   0  0  1  0  0  0  0  0  0  0  0  0
   12.8405   -8.6195   28.1330 C   0  0  1  0  0  0  0  0  0  0  0  0
   12.4255   -7.6528   29.3530 C   0  0  2  0  0  0  0  0  0  0  0  0
   15.6387  -10.9042   25.1591 C   0  0  1  0  0  0  0  0  0  0  0  0
   17.1830  -11.0221   25.4635 C   0  0  2  0  0  0  0  0  0  0  0  0
   17.8760   -9.6144   25.1161 C   0  0  1  0  0  0  0  0  0  0  0  0
   17.2834   -8.4494   26.0734 C   0  0  1  0  0  0  0  0  0  0  0  0
   17.9065   -7.0496   25.8148 C   0  0  0  0  0  0  0  0  0  0  0  0
   12.4295   -8.5368   30.6949 C   0  0  1  0  0  0  0  0  0  0  0  0
   13.9400   -9.0470   30.9330 C   0  0  0  0  0  0  0  0  0  0  0  0
   14.4166   -9.9655   29.7283 C   0  0  2  0  0  0  0  0  0  0  0  0
   19.3231   -9.6473   25.3530 F   0  0  0  0  0  0  0  0  0  0  0  0
   14.8675  -12.1986   25.4580 N   0  0  0  0  0  0  0  0  0  0  0  0
   17.4729   -6.0409   26.7108 N   0  0  0  0  0  0  0  0  0  0  0  0
   12.0637   -7.6927   31.8761 N   0  0  0  0  0  0  0  0  0  0  0  0
   15.7895  -10.4215   29.9238 N   0  0  0  0  0  0  0  0  0  0  0  0
   14.8295  -10.0276   27.4199 O   0  0  0  0  0  0  0  0  0  0  0  0
   12.8502   -7.8272   26.8647 O   0  0  0  0  0  0  0  0  0  0  0  0
   11.1328   -7.2051   29.1211 O   0  0  0  0  0  0  0  0  0  0  0  0
   17.6228  -11.8548   24.7575 O   0  0  0  0  0  0  0  0  0  0  0  0
   15.7245   -8.4328   25.8542 O   0  0  0  0  0  0  0  0  0  0  0  0
  1  5  1  0  0  0  0
  1 18  1  1  0  0  0
  2 18  1  6  0  0  0
  2  3  1  0  0  0  0
  2 12  1  0  0  0  0
  3 19  1  6  0  0  0
  3  4  1  0  0  0  0
  4 20  1  6  0  0  0
  4 10  1  0  0  0  0
  5  6  1  0  0  0  0
  5 14  1  1  0  0  0
  6 21  1  6  0  0  0
  7 13  1  1  0  0  0
  7  6  1  0  0  0  0
  8  9  1  6  0  0  0
  8  7  1  0  0  0  0
 10 16  1  1  0  0  0
 11 10  1  0  0  0  0
 12 17  1  1  0  0  0
 12 11  1  0  0  0  0
 15  9  1  0  0  0  0
 22  8  1  0  0  0  0
 22  1  1  0  0  0  0
M  END
>  <CHROM.1>
174.65308575,59.84328123,-175.46758160,15.18484774,-9.14107828,27.41504054
0.41673582,-0.68125151,-2.87861295

>  <Name>
lig.pdb

>  <RI>
0

>  <Rbt.Current_Directory>
/home/itssahil/PROJECTS/Mol_Feturizer/New_Systems/rnas/5bxk

>  <Rbt.Executable>
rbdock ($Id: //depot/dev/client3/rdock/2013.1/src/exe/rbdock.cxx#4 $)

>  <Rbt.Library>
libRbt.so (2013.1, Build901 2013/11/27)

>  <Rbt.Parameter_File>
/export/apps/rDock/src/rDock_2013.1_src/data/scripts/dock_solv.prm

>  <Rbt.Receptor>
prm/pocket_docking_7.prm

>  <SCORE>
-9.3645

>  <SCORE.INTER>
-5.08378

>  <SCORE.INTER.CONST>
1

>  <SCORE.INTER.POLAR>
0

>  <SCORE.INTER.ROT>
3

>  <SCORE.INTER.SOLV>
16.7189

>  <SCORE.INTER.VDW>
-14.5622

>  <SCORE.INTER.norm>
-0.231081

>  <SCORE.INTRA>
-4.28072

>  <SCORE.INTRA.DIHEDRAL>
-6.83507

>  <SCORE.INTRA.DIHEDRAL.0>
7.18044

>  <SCORE.INTRA.POLAR>
0

>  <SCORE.INTRA.POLAR.0>
0

>  <SCORE.INTRA.REPUL>
0

>  <SCORE.INTRA.REPUL.0>
0

>  <SCORE.INTRA.SOLV>
-1.86552

>  <SCORE.INTRA.SOLV.lig_0>
-72.0615

>  <SCORE.INTRA.VDW>
0.0695762

>  <SCORE.INTRA.VDW.0>
-1.54792

>  <SCORE.INTRA.norm>
-0.194578

>  <SCORE.RESTR>
0

>  <SCORE.RESTR.CAVITY>
0

>  <SCORE.RESTR.norm>
0

>  <SCORE.SYSTEM>
0

>  <SCORE.SYSTEM.CONST>
0

>  <SCORE.SYSTEM.DIHEDRAL>
0

>  <SCORE.SYSTEM.SOLV>
0

>  <SCORE.SYSTEM.norm>
0

>  <SCORE.heavy>
22

>  <SCORE.norm>
-0.425659

>  <RMSD>
5.771

$$$$
lig.pdb
 OpenBabel11021811523D
libRbt.so/2013.1/901 2013/11/27
 22 23  0  0  0  0  0  0  0  0999 V2000
   14.1829  -10.3242   26.3834 C   0  0  1  0  0  0  0  0  0  0  0  0
   14.0180   -9.0970   28.5548 C   0  0  1  0  0  0  0  0  0  0  0  0
   12.4728   -8.5858   28.3538 C   0  0  1  0  0  0  0  0  0  0  0  0
   12.2386   -7.3456   29.3550 C   0  0  2  0  0  0  0  0  0  0  0  0
   14.9208  -11.5223   25.6322 C   0  0  1  0  0  0  0  0  0  0  0  0
   16.4804  -11.2809   25.6034 C   0  0  2  0  0  0  0  0  0  0  0  0
   16.7678   -9.9273   24.7864 C   0  0  1  0  0  0  0  0  0  0  0  0
   16.0983   -8.6633   25.5474 C   0  0  1  0  0  0  0  0  0  0  0  0
   16.3355   -7.3046   24.8319 C   0  0  0  0  0  0  0  0  0  0  0  0
   12.4134   -7.8940   30.8553 C   0  0  1  0  0  0  0  0  0  0  0  0
   13.9358   -8.4005   31.0103 C   0  0  0  0  0  0  0  0  0  0  0  0
   14.2338   -9.5930   30.0048 C   0  0  2  0  0  0  0  0  0  0  0  0
   18.2035   -9.6413   24.6953 F   0  0  0  0  0  0  0  0  0  0  0  0
   14.5244  -12.7960   26.3939 N   0  0  0  0  0  0  0  0  0  0  0  0
   15.8403   -6.1782   25.5348 N   0  0  0  0  0  0  0  0  0  0  0  0
   12.2210   -6.7842   31.8416 N   0  0  0  0  0  0  0  0  0  0  0  0
   15.6150  -10.0506   30.1237 N   0  0  0  0  0  0  0  0  0  0  0  0
   14.3299  -10.2061   27.7424 O   0  0  0  0  0  0  0  0  0  0  0  0
   12.3205   -8.1100   26.9443 O   0  0  0  0  0  0  0  0  0  0  0  0
   10.9319   -6.9080   29.1925 O   0  0  0  0  0  0  0  0  0  0  0  0
   16.9707  -12.1876   25.0352 O   0  0  0  0  0  0  0  0  0  0  0  0
   14.5621   -8.9792   25.6841 O   0  0  0  0  0  0  0  0  0  0  0  0
  1  5  1  0  0  0  0
  1 18  1  1  0  0  0
  2 18  1  6  0  0  0
  2  3  1  0  0  0  0
  2 12  1  0  0  0  0
  3 19  1  6  0  0  0
  3  4  1  0  0  0  0
  4 20  1  1  0  0  0
  4 10  1  0  0  0  0
  5  6  1  0  0  0  0
  5 14  1  1  0  0  0
  6 21  1  6  0  0  0
  7 13  1  1  0  0  0
  7  6  1  0  0  0  0
  8  9  1  6  0  0  0
  8  7  1  0  0  0  0
 10 16  1  1  0  0  0
 11 10  1  0  0  0  0
 12 17  1  6  0  0  0
 12 11  1  0  0  0  0
 15  9  1  0  0  0  0
 22  8  1  0  0  0  0
 22  1  1  0  0  0  0
M  END
>  <CHROM.1>
165.31276461,53.71847491,-175.63283758,14.56884693,-9.17456368,27.39672409
0.05788356,-0.94402051,2.73489560

>  <Name>
lig.pdb

>  <RI>
0

>  <Rbt.Current_Directory>
/home/itssahil/PROJECTS/Mol_Feturizer/New_Systems/rnas/5bxk

>  <Rbt.Executable>
rbdock ($Id: //depot/dev/client3/rdock/2013.1/src/exe/rbdock.cxx#4 $)

>  <Rbt.Library>
libRbt.so (2013.1, Build901 2013/11/27)

>  <Rbt.Parameter_File>
/export/apps/rDock/src/rDock_2013.1_src/data/scripts/dock_solv.prm

>  <Rbt.Receptor>
prm/pocket_docking_7.prm

>  <SCORE>
-10.2363

>  <SCORE.INTER>
-6.66103

>  <SCORE.INTER.CONST>
1

>  <SCORE.INTER.POLAR>
0

>  <SCORE.INTER.ROT>
3

>  <SCORE.INTER.SOLV>
19.2636

>  <SCORE.INTER.VDW>
-16.4619

>  <SCORE.INTER.norm>
-0.302774

>  <SCORE.INTRA>
-3.57525

>  <SCORE.INTRA.DIHEDRAL>
-5.80721

>  <SCORE.INTRA.DIHEDRAL.0>
7.18044

>  <SCORE.INTRA.POLAR>
0

>  <SCORE.INTRA.POLAR.0>
0

>  <SCORE.INTRA.REPUL>
0

>  <SCORE.INTRA.REPUL.0>
0

>  <SCORE.INTRA.SOLV>
-1.66927

>  <SCORE.INTRA.SOLV.lig_0>
-72.0615

>  <SCORE.INTRA.VDW>
0.162986

>  <SCORE.INTRA.VDW.0>
-1.54792

>  <SCORE.INTRA.norm>
-0.162512

>  <SCORE.RESTR>
0

>  <SCORE.RESTR.CAVITY>
0

>  <SCORE.RESTR.norm>
0

>  <SCORE.SYSTEM>
0

>  <SCORE.SYSTEM.CONST>
0

>  <SCORE.SYSTEM.DIHEDRAL>
0

>  <SCORE.SYSTEM.SOLV>
0

>  <SCORE.SYSTEM.norm>
0

>  <SCORE.heavy>
22

>  <SCORE.norm>
-0.465285

>  <RMSD>
5.811

$$$$
lig.pdb
 OpenBabel11021811523D
libRbt.so/2013.1/901 2013/11/27
 22 23  0  0  0  0  0  0  0  0999 V2000
   14.1647  -10.3811   26.3889 C   0  0  1  0  0  0  0  0  0  0  0  0
   14.0380   -9.1704   28.5722 C   0  0  1  0  0  0  0  0  0  0  0  0
   12.4898   -8.6573   28.4014 C   0  0  1  0  0  0  0  0  0  0  0  0
   12.2730   -7.4250   29.4160 C   0  0  2  0  0  0  0  0  0  0  0  0
   14.9107  -11.5574   25.6118 C   0  0  1  0  0  0  0  0  0  0  0  0
   16.4645  -11.2856   25.5554 C   0  0  2  0  0  0  0  0  0  0  0  0
   16.7100   -9.9190   24.7465 C   0  0  1  0  0  0  0  0  0  0  0  0
   16.0314   -8.6755   25.5328 C   0  0  1  0  0  0  0  0  0  0  0  0
   16.2286   -7.3056   24.8264 C   0  0  0  0  0  0  0  0  0  0  0  0
   12.4730   -7.9851   30.9088 C   0  0  1  0  0  0  0  0  0  0  0  0
   13.9977   -8.4930   31.0341 C   0  0  0  0  0  0  0  0  0  0  0  0
   14.2783   -9.6777   30.0143 C   0  0  2  0  0  0  0  0  0  0  0  0
   18.1380   -9.6044   24.6306 F   0  0  0  0  0  0  0  0  0  0  0  0
   14.5536  -12.8457   26.3683 N   0  0  0  0  0  0  0  0  0  0  0  0
   15.7126   -6.1974   25.5432 N   0  0  0  0  0  0  0  0  0  0  0  0
   12.2977   -6.8829   31.9068 N   0  0  0  0  0  0  0  0  0  0  0  0
   15.6611  -10.1365   30.1063 N   0  0  0  0  0  0  0  0  0  0  0  0
   14.3358  -10.2731   27.7460 O   0  0  0  0  0  0  0  0  0  0  0  0
   12.3138   -8.1706   26.9984 O   0  0  0  0  0  0  0  0  0  0  0  0
   10.9638   -6.9859   29.2791 O   0  0  0  0  0  0  0  0  0  0  0  0
   16.9610  -12.1772   24.9688 O   0  0  0  0  0  0  0  0  0  0  0  0
   14.5044   -9.0223   25.6958 O   0  0  0  0  0  0  0  0  0  0  0  0
  1  5  1  0  0  0  0
  1 18  1  1  0  0  0
  2 18  1  6  0  0  0
  2  3  1  0  0  0  0
  2 12  1  0  0  0  0
  3 19  1  6  0  0  0
  3  4  1  0  0  0  0
  4 20  1  1  0  0  0
  4 10  1  0  0  0  0
  5  6  1  0  0  0  0
  5 14  1  1  0  0  0
  6 21  1  6  0  0  0
  7 13  1  1  0  0  0
  7  6  1  0  0  0  0
  8  9  1  6  0  0  0
  8  7  1  0  0  0  0
 10 16  1  1  0  0  0
 11 10  1  0  0  0  0
 12 17  1  6  0  0  0
 12 11  1  0  0  0  0
 15  9  1  0  0  0  0
 22  8  1  0  0  0  0
 22  1  1  0  0  0  0
M  END
>  <CHROM.1>
164.22100971,53.65953644,-176.28851354,14.56236896,-9.22083019,27.40252001
0.01553330,-0.96076779,2.70111772

>  <Name>
lig.pdb

>  <RI>
0

>  <Rbt.Current_Directory>
/home/itssahil/PROJECTS/Mol_Feturizer/New_Systems/rnas/5bxk

>  <Rbt.Executable>
rbdock ($Id: //depot/dev/client3/rdock/2013.1/src/exe/rbdock.cxx#4 $)

>  <Rbt.Library>
libRbt.so (2013.1, Build901 2013/11/27)

>  <Rbt.Parameter_File>
/export/apps/rDock/src/rDock_2013.1_src/data/scripts/dock_solv.prm

>  <Rbt.Receptor>
prm/pocket_docking_7.prm

>  <SCORE>
-10.2464

>  <SCORE.INTER>
-6.80176

>  <SCORE.INTER.CONST>
1

>  <SCORE.INTER.POLAR>
0

>  <SCORE.INTER.ROT>
3

>  <SCORE.INTER.SOLV>
19.5646

>  <SCORE.INTER.VDW>
-16.656

>  <SCORE.INTER.norm>
-0.309171

>  <SCORE.INTRA>
-3.44464

>  <SCORE.INTRA.DIHEDRAL>
-5.68099

>  <SCORE.INTRA.DIHEDRAL.0>
7.18044

>  <SCORE.INTRA.POLAR>
0

>  <SCORE.INTRA.POLAR.0>
0

>  <SCORE.INTRA.REPUL>
0

>  <SCORE.INTRA.REPUL.0>
0

>  <SCORE.INTRA.SOLV>
-1.58083

>  <SCORE.INTRA.SOLV.lig_0>
-72.0615

>  <SCORE.INTRA.VDW>
0.18627

>  <SCORE.INTRA.VDW.0>
-1.54792

>  <SCORE.INTRA.norm>
-0.156575

>  <SCORE.RESTR>
0

>  <SCORE.RESTR.CAVITY>
0

>  <SCORE.RESTR.norm>
0

>  <SCORE.SYSTEM>
0

>  <SCORE.SYSTEM.CONST>
0

>  <SCORE.SYSTEM.DIHEDRAL>
0

>  <SCORE.SYSTEM.SOLV>
0

>  <SCORE.SYSTEM.norm>
0

>  <SCORE.heavy>
22

>  <SCORE.norm>
-0.465746

>  <RMSD>
5.813

$$$$
lig.pdb
 OpenBabel11021811523D
libRbt.so/2013.1/901 2013/11/27
 22 23  0  0  0  0  0  0  0  0999 V2000
   15.5087   -8.3264   26.5523 C   0  0  1  0  0  0  0  0  0  0  0  0
   14.4830   -6.6909   24.9644 C   0  0  1  0  0  0  0  0  0  0  0  0
   13.0783   -6.4003   25.7592 C   0  0  1  0  0  0  0  0  0  0  0  0
   12.0210   -5.8344   24.6836 C   0  0  2  0  0  0  0  0  0  0  0  0
   16.6000   -8.4975   27.7030 C   0  0  1  0  0  0  0  0  0  0  0  0
   18.0369   -8.6908   27.0791 C   0  0  2  0  0  0  0  0  0  0  0  0
   18.0285  -10.0332   26.1958 C   0  0  1  0  0  0  0  0  0  0  0  0
   16.9848   -9.8852   24.9655 C   0  0  1  0  0  0  0  0  0  0  0  0
   16.9178  -11.1370   24.0474 C   0  0  0  0  0  0  0  0  0  0  0  0
   12.5977   -4.4436   24.1223 C   0  0  1  0  0  0  0  0  0  0  0  0
   13.9824   -4.7659   23.3627 C   0  0  0  0  0  0  0  0  0  0  0  0
   15.0454   -5.3763   24.3724 C   0  0  2  0  0  0  0  0  0  0  0  0
   19.3403  -10.2973   25.5949 F   0  0  0  0  0  0  0  0  0  0  0  0
   16.4875   -7.2358   28.5719 N   0  0  0  0  0  0  0  0  0  0  0  0
   16.5419  -12.3310   24.7115 N   0  0  0  0  0  0  0  0  0  0  0  0
   11.6657   -3.8665   23.1026 N   0  0  0  0  0  0  0  0  0  0  0  0
   16.2995   -5.6880   23.6934 N   0  0  0  0  0  0  0  0  0  0  0  0
   15.4983   -7.1670   25.8186 O   0  0  0  0  0  0  0  0  0  0  0  0
   12.5741   -7.6995   26.3017 O   0  0  0  0  0  0  0  0  0  0  0  0
   10.8293   -5.5840   25.3489 O   0  0  0  0  0  0  0  0  0  0  0  0
   18.7973   -8.8175   27.9686 O   0  0  0  0  0  0  0  0  0  0  0  0
   15.5803   -9.5631   25.5998 O   0  0  0  0  0  0  0  0  0  0  0  0
  1  5  1  0  0  0  0
  1 18  1  6  0  0  0
  2 18  1  1  0  0  0
  2  3  1  0  0  0  0
  2 12  1  0  0  0  0
  3 19  1  6  0  0  0
  3  4  1  0  0  0  0
  4 20  1  1  0  0  0
  4 10  1  0  0  0  0
  5  6  1  0  0  0  0
  5 14  1  1  0  0  0
  6 21  1  1  0  0  0
  7 13  1  6  0  0  0
  7  6  1  0  0  0  0
  8  9  1  1  0  0  0
  8  7  1  0  0  0  0
 10 16  1  6  0  0  0
 11 10  1  0  0  0  0
 12 17  1  6  0  0  0
 12 11  1  0  0  0  0
 15  9  1  0  0  0  0
 22  8  1  0  0  0  0
 22  1  1  0  0  0  0
M  END
>  <CHROM.1>
-165.79164959,62.30925165,59.05941486,15.35920020,-7.70463330,25.49790321
-0.29366727,-0.71629004,0.79690247

>  <Name>
lig.pdb

>  <RI>
0

>  <Rbt.Current_Directory>
/home/itssahil/PROJECTS/Mol_Feturizer/New_Systems/rnas/5bxk

>  <Rbt.Executable>
rbdock ($Id: //depot/dev/client3/rdock/2013.1/src/exe/rbdock.cxx#4 $)

>  <Rbt.Library>
libRbt.so (2013.1, Build901 2013/11/27)

>  <Rbt.Parameter_File>
/export/apps/rDock/src/rDock_2013.1_src/data/scripts/dock_solv.prm

>  <Rbt.Receptor>
prm/pocket_docking_8.prm

>  <SCORE>
-7.30778

>  <SCORE.INTER>
-3.96744

>  <SCORE.INTER.CONST>
1

>  <SCORE.INTER.POLAR>
0

>  <SCORE.INTER.ROT>
3

>  <SCORE.INTER.SOLV>
15.5408

>  <SCORE.INTER.VDW>
-13.4252

>  <SCORE.INTER.norm>
-0.180338

>  <SCORE.INTRA>
-3.34034

>  <SCORE.INTRA.DIHEDRAL>
-6.10012

>  <SCORE.INTRA.DIHEDRAL.0>
7.18044

>  <SCORE.INTRA.POLAR>
0

>  <SCORE.INTRA.POLAR.0>
0

>  <SCORE.INTRA.REPUL>
0

>  <SCORE.INTRA.REPUL.0>
0

>  <SCORE.INTRA.SOLV>
-0.633166

>  <SCORE.INTRA.SOLV.lig_0>
-72.0615

>  <SCORE.INTRA.VDW>
0.0263037

>  <SCORE.INTRA.VDW.0>
-1.54792

>  <SCORE.INTRA.norm>
-0.151834

>  <SCORE.RESTR>
0

>  <SCORE.RESTR.CAVITY>
0

>  <SCORE.RESTR.norm>
0

>  <SCORE.SYSTEM>
0

>  <SCORE.SYSTEM.CONST>
0

>  <SCORE.SYSTEM.DIHEDRAL>
0

>  <SCORE.SYSTEM.SOLV>
0

>  <SCORE.SYSTEM.norm>
0

>  <SCORE.heavy>
22

>  <SCORE.norm>
-0.332172

>  <RMSD>
5.911

$$$$
lig.pdb
 OpenBabel11021811523D
libRbt.so/2013.1/901 2013/11/27
 22 23  0  0  0  0  0  0  0  0999 V2000
   12.8022   -7.9553   27.1458 C   0  0  1  0  0  0  0  0  0  0  0  0
   13.5842   -6.2752   25.4683 C   0  0  1  0  0  0  0  0  0  0  0  0
   12.2585   -5.3591   25.1645 C   0  0  1  0  0  0  0  0  0  0  0  0
   12.4424   -4.7106   23.7013 C   0  0  2  0  0  0  0  0  0  0  0  0
   12.8103   -8.3622   28.6880 C   0  0  1  0  0  0  0  0  0  0  0  0
   14.2090   -8.9717   29.0926 C   0  0  2  0  0  0  0  0  0  0  0  0
   14.4513  -10.3019   28.2242 C   0  0  1  0  0  0  0  0  0  0  0  0
   14.5235   -9.9341   26.6481 C   0  0  1  0  0  0  0  0  0  0  0  0
   14.7675  -11.1630   25.7290 C   0  0  0  0  0  0  0  0  0  0  0  0
   13.7333   -3.7552   23.7532 C   0  0  1  0  0  0  0  0  0  0  0  0
   15.0111   -4.6861   24.0682 C   0  0  0  0  0  0  0  0  0  0  0  0
   14.8544   -5.3913   25.4825 C   0  0  2  0  0  0  0  0  0  0  0  0
   15.7274  -10.9440   28.5573 F   0  0  0  0  0  0  0  0  0  0  0  0
   12.4703   -7.0770   29.4577 N   0  0  0  0  0  0  0  0  0  0  0  0
   16.0299  -11.7830   25.9029 N   0  0  0  0  0  0  0  0  0  0  0  0
   13.9712   -3.1274   22.4150 N   0  0  0  0  0  0  0  0  0  0  0  0
   15.9983   -6.2505   25.7731 N   0  0  0  0  0  0  0  0  0  0  0  0
   13.5458   -6.8746   26.7436 O   0  0  0  0  0  0  0  0  0  0  0  0
   11.0645   -6.2594   25.1523 O   0  0  0  0  0  0  0  0  0  0  0  0
   11.3248   -3.9317   23.4371 O   0  0  0  0  0  0  0  0  0  0  0  0
   14.1563   -9.2580   30.2330 O   0  0  0  0  0  0  0  0  0  0  0  0
   13.1725   -9.2093   26.2902 O   0  0  0  0  0  0  0  0  0  0  0  0
  1  5  1  0  0  0  0
  1 18  1  1  0  0  0
  2 18  1  1  0  0  0
  2  3  1  0  0  0  0
  2 12  1  0  0  0  0
  3 19  1  6  0  0  0
  3  4  1  0  0  0  0
  4 20  1  1  0  0  0
  4 10  1  0  0  0  0
  5  6  1  0  0  0  0
  5 14  1  1  0  0  0
  6 21  1  1  0  0  0
  7 13  1  1  0  0  0
  7  6  1  0  0  0  0
  8  9  1  6  0  0  0
  8  7  1  0  0  0  0
 10 16  1  6  0  0  0
 11 10  1  0  0  0  0
 12 17  1  6  0  0  0
 12 11  1  0  0  0  0
 15  9  1  0  0  0  0
 22  8  1  0  0  0  0
 22  1  1  0  0  0  0
M  END
>  <CHROM.1>
-173.68727223,75.74372314,-65.50532537,13.77079391,-7.40207993,26.27106728
1.26654781,-0.78538414,2.29330226

>  <Name>
lig.pdb

>  <RI>
0

>  <Rbt.Current_Directory>
/home/itssahil/PROJECTS/Mol_Feturizer/New_Systems/rnas/5bxk

>  <Rbt.Executable>
rbdock ($Id: //depot/dev/client3/rdock/2013.1/src/exe/rbdock.cxx#4 $)

>  <Rbt.Library>
libRbt.so (2013.1, Build901 2013/11/27)

>  <Rbt.Parameter_File>
/export/apps/rDock/src/rDock_2013.1_src/data/scripts/dock_solv.prm

>  <Rbt.Receptor>
prm/pocket_docking_8.prm

>  <SCORE>
-8.29952

>  <SCORE.INTER>
-5.17253

>  <SCORE.INTER.CONST>
1

>  <SCORE.INTER.POLAR>
0

>  <SCORE.INTER.ROT>
3

>  <SCORE.INTER.SOLV>
12.0273

>  <SCORE.INTER.VDW>
-13.0574

>  <SCORE.INTER.norm>
-0.235115

>  <SCORE.INTRA>
-3.12699

>  <SCORE.INTRA.DIHEDRAL>
-5.59423

>  <SCORE.INTRA.DIHEDRAL.0>
7.18044

>  <SCORE.INTRA.POLAR>
0

>  <SCORE.INTRA.POLAR.0>
0

>  <SCORE.INTRA.REPUL>
0

>  <SCORE.INTRA.REPUL.0>
0

>  <SCORE.INTRA.SOLV>
-0.553934

>  <SCORE.INTRA.SOLV.lig_0>
-72.0615

>  <SCORE.INTRA.VDW>
-0.0529093

>  <SCORE.INTRA.VDW.0>
-1.54792

>  <SCORE.INTRA.norm>
-0.142136

>  <SCORE.RESTR>
0

>  <SCORE.RESTR.CAVITY>
0

>  <SCORE.RESTR.norm>
0

>  <SCORE.SYSTEM>
0

>  <SCORE.SYSTEM.CONST>
0

>  <SCORE.SYSTEM.DIHEDRAL>
0

>  <SCORE.SYSTEM.SOLV>
0

>  <SCORE.SYSTEM.norm>
0

>  <SCORE.heavy>
22

>  <SCORE.norm>
-0.377251

>  <RMSD>
6.056

$$$$
lig.pdb
 OpenBabel11021811523D
libRbt.so/2013.1/901 2013/11/27
 22 23  0  0  0  0  0  0  0  0999 V2000
   15.8735   -8.6351   28.1234 C   0  0  1  0  0  0  0  0  0  0  0  0
   16.0564   -9.5289   25.7962 C   0  0  1  0  0  0  0  0  0  0  0  0
   17.6272   -9.9997   25.7858 C   0  0  1  0  0  0  0  0  0  0  0  0
   17.7790  -11.1570   24.6755 C   0  0  2  0  0  0  0  0  0  0  0  0
   15.5796   -7.3423   29.0101 C   0  0  1  0  0  0  0  0  0  0  0  0
   16.7506   -6.2938   28.8656 C   0  0  2  0  0  0  0  0  0  0  0  0
   18.1050   -6.9707   29.4039 C   0  0  1  0  0  0  0  0  0  0  0  0
   18.4898   -8.2522   28.4903 C   0  0  1  0  0  0  0  0  0  0  0  0
   19.7972   -8.9661   28.9323 C   0  0  0  0  0  0  0  0  0  0  0  0
   16.8681  -12.3967   25.1396 C   0  0  1  0  0  0  0  0  0  0  0  0
   15.3369  -11.8931   25.1525 C   0  0  0  0  0  0  0  0  0  0  0  0
   15.1448  -10.7132   26.1979 C   0  0  2  0  0  0  0  0  0  0  0  0
   19.2432   -6.0492   29.3230 F   0  0  0  0  0  0  0  0  0  0  0  0
   14.2271   -6.8028   28.5210 N   0  0  0  0  0  0  0  0  0  0  0  0
   20.9617   -8.1635   28.8435 N   0  0  0  0  0  0  0  0  0  0  0  0
   16.9526  -13.5084   24.1404 N   0  0  0  0  0  0  0  0  0  0  0  0
   13.7650  -10.2367   26.2079 N   0  0  0  0  0  0  0  0  0  0  0  0
   15.7981   -8.5307   26.7574 O   0  0  0  0  0  0  0  0  0  0  0  0
   18.4615   -8.8256   25.3837 O   0  0  0  0  0  0  0  0  0  0  0  0
   19.1060  -11.5626   24.6617 O   0  0  0  0  0  0  0  0  0  0  0  0
   16.4852   -5.3679   29.5421 O   0  0  0  0  0  0  0  0  0  0  0  0
   17.2571   -9.2301   28.5402 O   0  0  0  0  0  0  0  0  0  0  0  0
  1  5  1  0  0  0  0
  1 18  1  6  0  0  0
  2 18  1  1  0  0  0
  2  3  1  0  0  0  0
  2 12  1  0  0  0  0
  3 19  1  6  0  0  0
  3  4  1  0  0  0  0
  4 20  1  1  0  0  0
  4 10  1  0  0  0  0
  5  6  1  0  0  0  0
  5 14  1  6  0  0  0
  6 21  1  1  0  0  0
  7 13  1  6  0  0  0
  7  6  1  0  0  0  0
  8  9  1  1  0  0  0
  8  7  1  0  0  0  0
 10 16  1  6  0  0  0
 11 10  1  0  0  0  0
 12 17  1  6  0  0  0
 12 11  1  0  0  0  0
 15  9  1  0  0  0  0
 22  8  1  0  0  0  0
 22  1  1  0  0  0  0
M  END
>  <CHROM.1>
177.93610225,-65.35356915,-62.56762460,17.12914836,-9.04814836,27.18781596
1.42559799,-0.06786915,0.68832390

>  <Name>
lig.pdb

>  <RI>
0

>  <Rbt.Current_Directory>
/home/itssahil/PROJECTS/Mol_Feturizer/New_Systems/rnas/5bxk

>  <Rbt.Executable>
rbdock ($Id: //depot/dev/client3/rdock/2013.1/src/exe/rbdock.cxx#4 $)

>  <Rbt.Library>
libRbt.so (2013.1, Build901 2013/11/27)

>  <Rbt.Parameter_File>
/export/apps/rDock/src/rDock_2013.1_src/data/scripts/dock_solv.prm

>  <Rbt.Receptor>
prm/pocket_docking_4.prm

>  <SCORE>
-6.50578

>  <SCORE.INTER>
-3.37523

>  <SCORE.INTER.CONST>
1

>  <SCORE.INTER.POLAR>
0

>  <SCORE.INTER.ROT>
3

>  <SCORE.INTER.SOLV>
14.9298

>  <SCORE.INTER.VDW>
-12.8267

>  <SCORE.INTER.norm>
-0.153419

>  <SCORE.INTRA>
-3.13055

>  <SCORE.INTRA.DIHEDRAL>
-6.86101

>  <SCORE.INTRA.DIHEDRAL.0>
7.18044

>  <SCORE.INTRA.POLAR>
0

>  <SCORE.INTRA.POLAR.0>
0

>  <SCORE.INTRA.REPUL>
0

>  <SCORE.INTRA.REPUL.0>
0

>  <SCORE.INTRA.SOLV>
0.389428

>  <SCORE.INTRA.SOLV.lig_0>
-72.0615

>  <SCORE.INTRA.VDW>
0.105243

>  <SCORE.INTRA.VDW.0>
-1.54792

>  <SCORE.INTRA.norm>
-0.142298

>  <SCORE.RESTR>
0

>  <SCORE.RESTR.CAVITY>
0

>  <SCORE.RESTR.norm>
0

>  <SCORE.SYSTEM>
0

>  <SCORE.SYSTEM.CONST>
0

>  <SCORE.SYSTEM.DIHEDRAL>
0

>  <SCORE.SYSTEM.SOLV>
0

>  <SCORE.SYSTEM.norm>
0

>  <SCORE.heavy>
22

>  <SCORE.norm>
-0.295717

>  <RMSD>
6.085

$$$$
lig.pdb
 OpenBabel11021811523D
libRbt.so/2013.1/901 2013/11/27
 22 23  0  0  0  0  0  0  0  0999 V2000
   15.4575   -7.7364   26.2861 C   0  0  1  0  0  0  0  0  0  0  0  0
   16.4511   -9.9192   25.5812 C   0  0  1  0  0  0  0  0  0  0  0  0
   15.8030  -11.1818   24.7597 C   0  0  1  0  0  0  0  0  0  0  0  0
   16.7171  -12.4744   25.0578 C   0  0  2  0  0  0  0  0  0  0  0  0
   14.3235   -8.0078   27.3744 C   0  0  1  0  0  0  0  0  0  0  0  0
   12.8974   -8.0159   26.6980 C   0  0  2  0  0  0  0  0  0  0  0  0
   12.6346   -6.5672   26.0541 C   0  0  1  0  0  0  0  0  0  0  0  0
   13.7195   -6.2696   24.8882 C   0  0  1  0  0  0  0  0  0  0  0  0
   13.5348   -4.8893   24.1988 C   0  0  0  0  0  0  0  0  0  0  0  0
   18.1849  -12.1747   24.4764 C   0  0  1  0  0  0  0  0  0  0  0  0
   18.7824  -10.9215   25.2954 C   0  0  0  0  0  0  0  0  0  0  0  0
   17.8847   -9.6301   25.0753 C   0  0  2  0  0  0  0  0  0  0  0  0
   11.3143   -6.4848   25.4204 F   0  0  0  0  0  0  0  0  0  0  0  0
   14.6867   -9.3508   28.0256 N   0  0  0  0  0  0  0  0  0  0  0  0
   14.4743   -4.6163   23.1737 N   0  0  0  0  0  0  0  0  0  0  0  0
   19.0942  -13.3361   24.7329 N   0  0  0  0  0  0  0  0  0  0  0  0
   18.4062   -8.4911   25.8250 N   0  0  0  0  0  0  0  0  0  0  0  0
   15.7437   -8.7180   25.3711 O   0  0  0  0  0  0  0  0  0  0  0  0
   14.4266  -11.4248   25.2915 O   0  0  0  0  0  0  0  0  0  0  0  0
   16.1763  -13.5476   24.3642 O   0  0  0  0  0  0  0  0  0  0  0  0
   12.1031   -8.2135   27.5438 O   0  0  0  0  0  0  0  0  0  0  0  0
   15.1420   -6.3939   25.5512 O   0  0  0  0  0  0  0  0  0  0  0  0
  1  5  1  0  0  0  0
  1 18  1  6  0  0  0
  2 18  1  6  0  0  0
  2  3  1  0  0  0  0
  2 12  1  0  0  0  0
  3 19  1  1  0  0  0
  3  4  1  0  0  0  0
  4 20  1  6  0  0  0
  4 10  1  0  0  0  0
  5  6  1  0  0  0  0
  5 14  1  6  0  0  0
  6 21  1  1  0  0  0
  7 13  1  6  0  0  0
  7  6  1  0  0  0  0
  8  9  1  1  0  0  0
  8  7  1  0  0  0  0
 10 16  1  1  0  0  0
 11 10  1  0  0  0  0
 12 17  1  1  0  0  0
 12 11  1  0  0  0  0
 15  9  1  0  0  0  0
 22  8  1  0  0  0  0
 22  1  1  0  0  0  0
M  END
>  <CHROM.1>
-74.38637315,141.09777002,-179.82345781,15.27542836,-8.99083426,25.50065132
-2.29839913,-0.38083637,2.92372481

>  <Name>
lig.pdb

>  <RI>
0

>  <Rbt.Current_Directory>
/home/itssahil/PROJECTS/Mol_Feturizer/New_Systems/rnas/5bxk

>  <Rbt.Executable>
rbdock ($Id: //depot/dev/client3/rdock/2013.1/src/exe/rbdock.cxx#4 $)

>  <Rbt.Library>
libRbt.so (2013.1, Build901 2013/11/27)

>  <Rbt.Parameter_File>
/export/apps/rDock/src/rDock_2013.1_src/data/scripts/dock_solv.prm

>  <Rbt.Receptor>
prm/pocket_docking_8.prm

>  <SCORE>
-7.83781

>  <SCORE.INTER>
-7.76535

>  <SCORE.INTER.CONST>
1

>  <SCORE.INTER.POLAR>
0

>  <SCORE.INTER.ROT>
3

>  <SCORE.INTER.SOLV>
15.5274

>  <SCORE.INTER.VDW>
-15.9527

>  <SCORE.INTER.norm>
-0.35297

>  <SCORE.INTRA>
-0.0724644

>  <SCORE.INTRA.DIHEDRAL>
-0.889426

>  <SCORE.INTRA.DIHEDRAL.0>
7.18044

>  <SCORE.INTRA.POLAR>
0

>  <SCORE.INTRA.POLAR.0>
0

>  <SCORE.INTRA.REPUL>
0

>  <SCORE.INTRA.REPUL.0>
0

>  <SCORE.INTRA.SOLV>
0.914701

>  <SCORE.INTRA.SOLV.lig_0>
-72.0615

>  <SCORE.INTRA.VDW>
-0.085102

>  <SCORE.INTRA.VDW.0>
-1.54792

>  <SCORE.INTRA.norm>
-0.00329384

>  <SCORE.RESTR>
0

>  <SCORE.RESTR.CAVITY>
0

>  <SCORE.RESTR.norm>
0

>  <SCORE.SYSTEM>
0

>  <SCORE.SYSTEM.CONST>
0

>  <SCORE.SYSTEM.DIHEDRAL>
0

>  <SCORE.SYSTEM.SOLV>
0

>  <SCORE.SYSTEM.norm>
0

>  <SCORE.heavy>
22

>  <SCORE.norm>
-0.356264

>  <RMSD>
6.086

$$$$
lig.pdb
 OpenBabel11021811523D
libRbt.so/2013.1/901 2013/11/27
 22 23  0  0  0  0  0  0  0  0999 V2000
   15.4585   -7.8257   26.2599 C   0  0  1  0  0  0  0  0  0  0  0  0
   16.4358  -10.0158   25.5550 C   0  0  1  0  0  0  0  0  0  0  0  0
   15.8296  -11.2910   24.7210 C   0  0  1  0  0  0  0  0  0  0  0  0
   16.7906  -12.5535   24.9999 C   0  0  2  0  0  0  0  0  0  0  0  0
   14.3371   -8.0257   27.3764 C   0  0  1  0  0  0  0  0  0  0  0  0
   12.8982   -7.9894   26.7288 C   0  0  2  0  0  0  0  0  0  0  0  0
   12.6819   -6.5456   26.0572 C   0  0  1  0  0  0  0  0  0  0  0  0
   13.7536   -6.3191   24.8635 C   0  0  1  0  0  0  0  0  0  0  0  0
   13.6115   -4.9479   24.1465 C   0  0  0  0  0  0  0  0  0  0  0  0
   18.2441  -12.1947   24.4164 C   0  0  1  0  0  0  0  0  0  0  0  0
   18.8002  -10.9307   25.2479 C   0  0  0  0  0  0  0  0  0  0  0  0
   17.8560   -9.6697   25.0469 C   0  0  2  0  0  0  0  0  0  0  0  0
   11.3532   -6.4225   25.4481 F   0  0  0  0  0  0  0  0  0  0  0  0
   14.6582   -9.3679   28.0509 N   0  0  0  0  0  0  0  0  0  0  0  0
   14.5513   -4.7296   23.1086 N   0  0  0  0  0  0  0  0  0  0  0  0
   19.1954  -13.3258   24.6553 N   0  0  0  0  0  0  0  0  0  0  0  0
   18.3398   -8.5218   25.8081 N   0  0  0  0  0  0  0  0  0  0  0  0
   15.6851   -8.8383   25.3622 O   0  0  0  0  0  0  0  0  0  0  0  0
   14.4651  -11.5893   25.2554 O   0  0  0  0  0  0  0  0  0  0  0  0
   16.2853  -13.6371   24.2958 O   0  0  0  0  0  0  0  0  0  0  0  0
   12.1141   -8.1351   27.5944 O   0  0  0  0  0  0  0  0  0  0  0  0
   15.1832   -6.4878   25.5009 O   0  0  0  0  0  0  0  0  0  0  0  0
  1  5  1  0  0  0  0
  1 18  1  6  0  0  0
  2 18  1  6  0  0  0
  2  3  1  0  0  0  0
  2 12  1  0  0  0  0
  3 19  1  1  0  0  0
  3  4  1  0  0  0  0
  4 20  1  6  0  0  0
  4 10  1  0  0  0  0
  5  6  1  0  0  0  0
  5 14  1  6  0  0  0
  6 21  1  1  0  0  0
  7 13  1  6  0  0  0
  7  6  1  0  0  0  0
  8  9  1  1  0  0  0
  8  7  1  0  0  0  0
 10 16  1  1  0  0  0
 11 10  1  0  0  0  0
 12 17  1  1  0  0  0
 12 11  1  0  0  0  0
 15  9  1  0  0  0  0
 22  8  1  0  0  0  0
 22  1  1  0  0  0  0
M  END
>  <CHROM.1>
-79.81744159,146.86753839,179.38954946,15.30178125,-9.03559225,25.47668155
-2.31070889,-0.41951038,2.90246615

>  <Name>
lig.pdb

>  <RI>
0

>  <Rbt.Current_Directory>
/home/itssahil/PROJECTS/Mol_Feturizer/New_Systems/rnas/5bxk

>  <Rbt.Executable>
rbdock ($Id: //depot/dev/client3/rdock/2013.1/src/exe/rbdock.cxx#4 $)

>  <Rbt.Library>
libRbt.so (2013.1, Build901 2013/11/27)

>  <Rbt.Parameter_File>
/export/apps/rDock/src/rDock_2013.1_src/data/scripts/dock_solv.prm

>  <Rbt.Receptor>
prm/pocket_docking_7.prm

>  <SCORE>
-7.98858

>  <SCORE.INTER>
-7.86398

>  <SCORE.INTER.CONST>
1

>  <SCORE.INTER.POLAR>
0

>  <SCORE.INTER.ROT>
3

>  <SCORE.INTER.SOLV>
15.3617

>  <SCORE.INTER.VDW>
-15.9632

>  <SCORE.INTER.norm>
-0.357454

>  <SCORE.INTRA>
-0.124597

>  <SCORE.INTRA.DIHEDRAL>
-1.15185

>  <SCORE.INTRA.DIHEDRAL.0>
7.18044

>  <SCORE.INTRA.POLAR>
0

>  <SCORE.INTRA.POLAR.0>
0

>  <SCORE.INTRA.REPUL>
0

>  <SCORE.INTRA.REPUL.0>
0

>  <SCORE.INTRA.SOLV>
0.820269

>  <SCORE.INTRA.SOLV.lig_0>
-72.0615

>  <SCORE.INTRA.VDW>
0.0411939

>  <SCORE.INTRA.VDW.0>
-1.54792

>  <SCORE.INTRA.norm>
-0.0056635

>  <SCORE.RESTR>
0

>  <SCORE.RESTR.CAVITY>
0

>  <SCORE.RESTR.norm>
0

>  <SCORE.SYSTEM>
0

>  <SCORE.SYSTEM.CONST>
0

>  <SCORE.SYSTEM.DIHEDRAL>
0

>  <SCORE.SYSTEM.SOLV>
0

>  <SCORE.SYSTEM.norm>
0

>  <SCORE.heavy>
22

>  <SCORE.norm>
-0.363117

>  <RMSD>
6.097

$$$$
lig.pdb
 OpenBabel11021811523D
libRbt.so/2013.1/901 2013/11/27
 22 23  0  0  0  0  0  0  0  0999 V2000
   14.6191  -10.4565   28.1848 C   0  0  1  0  0  0  0  0  0  0  0  0
   15.7372   -9.9872   30.3706 C   0  0  1  0  0  0  0  0  0  0  0  0
   14.9245  -11.0768   31.2880 C   0  0  1  0  0  0  0  0  0  0  0  0
   15.0555  -10.6104   32.8243 C   0  0  2  0  0  0  0  0  0  0  0  0
   14.8422  -10.9019   26.6695 C   0  0  1  0  0  0  0  0  0  0  0  0
   15.5040   -9.7331   25.8405 C   0  0  2  0  0  0  0  0  0  0  0  0
   14.5022   -8.4767   25.8490 C   0  0  1  0  0  0  0  0  0  0  0  0
   14.2962   -7.9373   27.3627 C   0  0  1  0  0  0  0  0  0  0  0  0
   13.3471   -6.7114   27.4668 C   0  0  0  0  0  0  0  0  0  0  0  0
   16.6132  -10.6610   33.2154 C   0  0  1  0  0  0  0  0  0  0  0  0
   17.3800   -9.5909   32.2852 C   0  0  0  0  0  0  0  0  0  0  0  0
   17.2370   -9.9786   30.7518 C   0  0  2  0  0  0  0  0  0  0  0  0
   15.0370   -7.3492   25.0781 F   0  0  0  0  0  0  0  0  0  0  0  0
   15.7168  -12.1631   26.7326 N   0  0  0  0  0  0  0  0  0  0  0  0
   13.1642   -6.2225   28.7842 N   0  0  0  0  0  0  0  0  0  0  0  0
   16.8090  -10.2242   34.6340 N   0  0  0  0  0  0  0  0  0  0  0  0
   17.9138   -9.0079   29.8969 N   0  0  0  0  0  0  0  0  0  0  0  0
   15.7139  -10.3118   28.9990 O   0  0  0  0  0  0  0  0  0  0  0  0
   13.4842  -11.0387   30.8878 O   0  0  0  0  0  0  0  0  0  0  0  0
   14.3717  -11.5288   33.6081 O   0  0  0  0  0  0  0  0  0  0  0  0
   15.6392  -10.1130   24.7347 O   0  0  0  0  0  0  0  0  0  0  0  0
   13.7583   -9.1525   28.2068 O   0  0  0  0  0  0  0  0  0  0  0  0
  1  5  1  0  0  0  0
  1 18  1  6  0  0  0
  2 18  1  6  0  0  0
  2  3  1  0  0  0  0
  2 12  1  0  0  0  0
  3 19  1  6  0  0  0
  3  4  1  0  0  0  0
  4 20  1  1  0  0  0
  4 10  1  0  0  0  0
  5  6  1  0  0  0  0
  5 14  1  1  0  0  0
  6 21  1  6  0  0  0
  7 13  1  6  0  0  0
  7  6  1  0  0  0  0
  8  9  1  6  0  0  0
  8  7  1  0  0  0  0
 10 16  1  1  0  0  0
 11 10  1  0  0  0  0
 12 17  1  6  0  0  0
 12 11  1  0  0  0  0
 15  9  1  0  0  0  0
 22  8  1  0  0  0  0
 22  1  1  0  0  0  0
M  END
>  <CHROM.1>
-176.98336863,59.56016763,-179.59663587,15.23054467,-9.66919882,29.19288889
-1.91363137,-1.06010010,1.53782088

>  <Name>
lig.pdb

>  <RI>
0

>  <Rbt.Current_Directory>
/home/itssahil/PROJECTS/Mol_Feturizer/New_Systems/rnas/5bxk

>  <Rbt.Executable>
rbdock ($Id: //depot/dev/client3/rdock/2013.1/src/exe/rbdock.cxx#4 $)

>  <Rbt.Library>
libRbt.so (2013.1, Build901 2013/11/27)

>  <Rbt.Parameter_File>
/export/apps/rDock/src/rDock_2013.1_src/data/scripts/dock_solv.prm

>  <Rbt.Receptor>
prm/pocket_docking_8.prm

>  <SCORE>
-10.2107

>  <SCORE.INTER>
-5.91406

>  <SCORE.INTER.CONST>
1

>  <SCORE.INTER.POLAR>
0

>  <SCORE.INTER.ROT>
3

>  <SCORE.INTER.SOLV>
18.8754

>  <SCORE.INTER.VDW>
-15.8345

>  <SCORE.INTER.norm>
-0.268821

>  <SCORE.INTRA>
-4.29662

>  <SCORE.INTRA.DIHEDRAL>
-7.00025

>  <SCORE.INTRA.DIHEDRAL.0>
7.18044

>  <SCORE.INTRA.POLAR>
0

>  <SCORE.INTRA.POLAR.0>
0

>  <SCORE.INTRA.REPUL>
0

>  <SCORE.INTRA.REPUL.0>
0

>  <SCORE.INTRA.SOLV>
-1.81226

>  <SCORE.INTRA.SOLV.lig_0>
-72.0615

>  <SCORE.INTRA.VDW>
0.109634

>  <SCORE.INTRA.VDW.0>
-1.54792

>  <SCORE.INTRA.norm>
-0.195301

>  <SCORE.RESTR>
0

>  <SCORE.RESTR.CAVITY>
0

>  <SCORE.RESTR.norm>
0

>  <SCORE.SYSTEM>
0

>  <SCORE.SYSTEM.CONST>
0

>  <SCORE.SYSTEM.DIHEDRAL>
0

>  <SCORE.SYSTEM.SOLV>
0

>  <SCORE.SYSTEM.norm>
0

>  <SCORE.heavy>
22

>  <SCORE.norm>
-0.464122

>  <RMSD>
6.122

$$$$
lig.pdb
 OpenBabel11021811523D
libRbt.so/2013.1/901 2013/11/27
 22 23  0  0  0  0  0  0  0  0999 V2000
   14.6100  -10.4594   28.1656 C   0  0  1  0  0  0  0  0  0  0  0  0
   15.7194   -9.9990   30.3578 C   0  0  1  0  0  0  0  0  0  0  0  0
   14.8746  -11.0667   31.2719 C   0  0  1  0  0  0  0  0  0  0  0  0
   15.0023  -10.5973   32.8076 C   0  0  2  0  0  0  0  0  0  0  0  0
   14.8382  -10.9022   26.6504 C   0  0  1  0  0  0  0  0  0  0  0  0
   15.5171   -9.7376   25.8293 C   0  0  2  0  0  0  0  0  0  0  0  0
   14.5281   -8.4711   25.8354 C   0  0  1  0  0  0  0  0  0  0  0  0
   14.3180   -7.9344   27.3496 C   0  0  1  0  0  0  0  0  0  0  0  0
   13.3808   -6.6992   27.4515 C   0  0  0  0  0  0  0  0  0  0  0  0
   16.5550  -10.6811   33.2127 C   0  0  1  0  0  0  0  0  0  0  0  0
   17.3536   -9.6319   32.2854 C   0  0  0  0  0  0  0  0  0  0  0  0
   17.2156  -10.0223   30.7523 C   0  0  2  0  0  0  0  0  0  0  0  0
   15.0793   -7.3467   25.0716 F   0  0  0  0  0  0  0  0  0  0  0  0
   15.6996  -12.1725   26.7149 N   0  0  0  0  0  0  0  0  0  0  0  0
   13.2249   -6.1891   28.7643 N   0  0  0  0  0  0  0  0  0  0  0  0
   16.7479  -10.2432   34.6313 N   0  0  0  0  0  0  0  0  0  0  0  0
   17.9214   -9.0702   29.8999 N   0  0  0  0  0  0  0  0  0  0  0  0
   15.7010  -10.3284   28.9872 O   0  0  0  0  0  0  0  0  0  0  0  0
   13.4390  -10.9981   30.8587 O   0  0  0  0  0  0  0  0  0  0  0  0
   14.2913  -11.4973   33.5886 O   0  0  0  0  0  0  0  0  0  0  0  0
   15.6556  -10.1154   24.7232 O   0  0  0  0  0  0  0  0  0  0  0  0
   13.7624   -9.1467   28.1864 O   0  0  0  0  0  0  0  0  0  0  0  0
  1  5  1  0  0  0  0
  1 18  1  6  0  0  0
  2 18  1  6  0  0  0
  2  3  1  0  0  0  0
  2 12  1  0  0  0  0
  3 19  1  6  0  0  0
  3  4  1  0  0  0  0
  4 20  1  1  0  0  0
  4 10  1  0  0  0  0
  5  6  1  0  0  0  0
  5 14  1  1  0  0  0
  6 21  1  6  0  0  0
  7 13  1  6  0  0  0
  7  6  1  0  0  0  0
  8  9  1  6  0  0  0
  8  7  1  0  0  0  0
 10 16  1  1  0  0  0
 11 10  1  0  0  0  0
 12 17  1  6  0  0  0
 12 11  1  0  0  0  0
 15  9  1  0  0  0  0
 22  8  1  0  0  0  0
 22  1  1  0  0  0  0
M  END
>  <CHROM.1>
-177.47605917,59.14926599,-177.87181835,15.22061121,-9.67203691,29.18027877
-1.89193507,-1.06229555,1.55707462

>  <Name>
lig.pdb

>  <RI>
0

>  <Rbt.Current_Directory>
/home/itssahil/PROJECTS/Mol_Feturizer/New_Systems/rnas/5bxk

>  <Rbt.Executable>
rbdock ($Id: //depot/dev/client3/rdock/2013.1/src/exe/rbdock.cxx#4 $)

>  <Rbt.Library>
libRbt.so (2013.1, Build901 2013/11/27)

>  <Rbt.Parameter_File>
/export/apps/rDock/src/rDock_2013.1_src/data/scripts/dock_solv.prm

>  <Rbt.Receptor>
prm/pocket_docking_8.prm

>  <SCORE>
-10.1491

>  <SCORE.INTER>
-5.8447

>  <SCORE.INTER.CONST>
1

>  <SCORE.INTER.POLAR>
0

>  <SCORE.INTER.ROT>
3

>  <SCORE.INTER.SOLV>
18.7798

>  <SCORE.INTER.VDW>
-15.7564

>  <SCORE.INTER.norm>
-0.265668

>  <SCORE.INTRA>
-4.30445

>  <SCORE.INTRA.DIHEDRAL>
-6.99442

>  <SCORE.INTRA.DIHEDRAL.0>
7.18044

>  <SCORE.INTRA.POLAR>
0

>  <SCORE.INTRA.POLAR.0>
0

>  <SCORE.INTRA.REPUL>
0

>  <SCORE.INTRA.REPUL.0>
0

>  <SCORE.INTRA.SOLV>
-1.83982

>  <SCORE.INTRA.SOLV.lig_0>
-72.0615

>  <SCORE.INTRA.VDW>
0.112669

>  <SCORE.INTRA.VDW.0>
-1.54792

>  <SCORE.INTRA.norm>
-0.195657

>  <SCORE.RESTR>
0

>  <SCORE.RESTR.CAVITY>
0

>  <SCORE.RESTR.norm>
0

>  <SCORE.SYSTEM>
0

>  <SCORE.SYSTEM.CONST>
0

>  <SCORE.SYSTEM.DIHEDRAL>
0

>  <SCORE.SYSTEM.SOLV>
0

>  <SCORE.SYSTEM.norm>
0

>  <SCORE.heavy>
22

>  <SCORE.norm>
-0.461325

>  <RMSD>
6.126

$$$$
lig.pdb
 OpenBabel11021811523D
libRbt.so/2013.1/901 2013/11/27
 22 23  0  0  0  0  0  0  0  0999 V2000
   14.8800   -6.7992   26.7767 C   0  0  1  0  0  0  0  0  0  0  0  0
   15.4344   -9.0435   25.8259 C   0  0  1  0  0  0  0  0  0  0  0  0
   17.0653   -8.9395   25.9619 C   0  0  1  0  0  0  0  0  0  0  0  0
   17.7059  -10.0102   24.9430 C   0  0  2  0  0  0  0  0  0  0  0  0
   13.8901   -5.9963   27.7356 C   0  0  1  0  0  0  0  0  0  0  0  0
   12.4261   -5.9967   27.1458 C   0  0  2  0  0  0  0  0  0  0  0  0
   12.4542   -5.2526   25.7218 C   0  0  1  0  0  0  0  0  0  0  0  0
   13.3924   -6.0693   24.6837 C   0  0  1  0  0  0  0  0  0  0  0  0
   13.4704   -5.4262   23.2713 C   0  0  0  0  0  0  0  0  0  0  0  0
   17.2372  -11.4720   25.4179 C   0  0  1  0  0  0  0  0  0  0  0  0
   15.6318  -11.5315   25.2852 C   0  0  0  0  0  0  0  0  0  0  0  0
   14.9517  -10.4558   26.2351 C   0  0  2  0  0  0  0  0  0  0  0  0
   11.1209   -5.1917   25.1134 F   0  0  0  0  0  0  0  0  0  0  0  0
   13.9864   -6.6881   29.1038 N   0  0  0  0  0  0  0  0  0  0  0  0
   14.0190   -4.1198   23.2521 N   0  0  0  0  0  0  0  0  0  0  0  0
   17.7891  -12.5196   24.5016 N   0  0  0  0  0  0  0  0  0  0  0  0
   13.4974  -10.4882   26.1124 N   0  0  0  0  0  0  0  0  0  0  0  0
   14.7624   -8.1640   26.6989 O   0  0  0  0  0  0  0  0  0  0  0  0
   17.4793   -7.5636   25.5473 O   0  0  0  0  0  0  0  0  0  0  0  0
   19.0868   -9.9299   25.0533 O   0  0  0  0  0  0  0  0  0  0  0  0
   11.7433   -5.3886   27.8869 O   0  0  0  0  0  0  0  0  0  0  0  0
   14.8167   -6.1731   25.3463 O   0  0  0  0  0  0  0  0  0  0  0  0
  1  5  1  0  0  0  0
  1 18  1  6  0  0  0
  2 18  1  1  0  0  0
  2  3  1  0  0  0  0
  2 12  1  0  0  0  0
  3 19  1  6  0  0  0
  3  4  1  0  0  0  0
  4 20  1  1  0  0  0
  4 10  1  0  0  0  0
  5  6  1  0  0  0  0
  5 14  1  1  0  0  0
  6 21  1  1  0  0  0
  7 13  1  6  0  0  0
  7  6  1  0  0  0  0
  8  9  1  6  0  0  0
  8  7  1  0  0  0  0
 10 16  1  6  0  0  0
 11 10  1  0  0  0  0
 12 17  1  6  0  0  0
 12 11  1  0  0  0  0
 15  9  1  0  0  0  0
 22  8  1  0  0  0  0
 22  1  1  0  0  0  0
M  END
>  <CHROM.1>
173.06551738,57.75711464,61.43795999,14.81702948,-7.81319434,25.79177982
2.61912052,0.72181483,-0.73378826

>  <Name>
lig.pdb

>  <RI>
0

>  <Rbt.Current_Directory>
/home/itssahil/PROJECTS/Mol_Feturizer/New_Systems/rnas/5bxk

>  <Rbt.Executable>
rbdock ($Id: //depot/dev/client3/rdock/2013.1/src/exe/rbdock.cxx#4 $)

>  <Rbt.Library>
libRbt.so (2013.1, Build901 2013/11/27)

>  <Rbt.Parameter_File>
/export/apps/rDock/src/rDock_2013.1_src/data/scripts/dock_solv.prm

>  <Rbt.Receptor>
prm/pocket_docking_7.prm

>  <SCORE>
-8.65701

>  <SCORE.INTER>
-4.88154

>  <SCORE.INTER.CONST>
1

>  <SCORE.INTER.POLAR>
0

>  <SCORE.INTER.ROT>
3

>  <SCORE.INTER.SOLV>
16.0309

>  <SCORE.INTER.VDW>
-14.198

>  <SCORE.INTER.norm>
-0.221888

>  <SCORE.INTRA>
-3.77547

>  <SCORE.INTRA.DIHEDRAL>
-6.78651

>  <SCORE.INTRA.DIHEDRAL.0>
7.18044

>  <SCORE.INTRA.POLAR>
0

>  <SCORE.INTRA.POLAR.0>
0

>  <SCORE.INTRA.REPUL>
0

>  <SCORE.INTRA.REPUL.0>
0

>  <SCORE.INTRA.SOLV>
-0.765794

>  <SCORE.INTRA.SOLV.lig_0>
-72.0615

>  <SCORE.INTRA.VDW>
0.000681935

>  <SCORE.INTRA.VDW.0>
-1.54792

>  <SCORE.INTRA.norm>
-0.171612

>  <SCORE.RESTR>
0

>  <SCORE.RESTR.CAVITY>
0

>  <SCORE.RESTR.norm>
0

>  <SCORE.SYSTEM>
0

>  <SCORE.SYSTEM.CONST>
0

>  <SCORE.SYSTEM.DIHEDRAL>
0

>  <SCORE.SYSTEM.SOLV>
0

>  <SCORE.SYSTEM.norm>
0

>  <SCORE.heavy>
22

>  <SCORE.norm>
-0.393501

>  <RMSD>
6.169

$$$$
lig.pdb
 OpenBabel11021811523D
libRbt.so/2013.1/901 2013/11/27
 22 23  0  0  0  0  0  0  0  0999 V2000
   16.5001   -8.3794   27.4637 C   0  0  1  0  0  0  0  0  0  0  0  0
   16.2645   -9.8496   25.4558 C   0  0  1  0  0  0  0  0  0  0  0  0
   17.7458  -10.5468   25.5492 C   0  0  1  0  0  0  0  0  0  0  0  0
   17.6742  -11.9453   24.7528 C   0  0  2  0  0  0  0  0  0  0  0  0
   16.3897   -6.8863   28.0135 C   0  0  1  0  0  0  0  0  0  0  0  0
   17.5454   -5.9904   27.4191 C   0  0  2  0  0  0  0  0  0  0  0  0
   18.9537   -6.5965   27.9004 C   0  0  1  0  0  0  0  0  0  0  0  0
   19.1495   -8.0916   27.3078 C   0  0  1  0  0  0  0  0  0  0  0  0
   20.4946   -8.7549   27.7144 C   0  0  0  0  0  0  0  0  0  0  0  0
   16.6108  -12.8813   25.5112 C   0  0  1  0  0  0  0  0  0  0  0  0
   15.1735  -12.1581   25.4122 C   0  0  0  0  0  0  0  0  0  0  0  0
   15.2058  -10.7472   26.1403 C   0  0  2  0  0  0  0  0  0  0  0  0
   20.0846   -5.8046   27.4049 F   0  0  0  0  0  0  0  0  0  0  0  0
   14.9881   -6.4003   27.6150 N   0  0  0  0  0  0  0  0  0  0  0  0
   20.7278   -8.7976   29.1115 N   0  0  0  0  0  0  0  0  0  0  0  0
   16.4844  -14.1991   24.8121 N   0  0  0  0  0  0  0  0  0  0  0  0
   13.9139  -10.0741   26.0439 N   0  0  0  0  0  0  0  0  0  0  0  0
   16.2006   -8.6226   26.1470 O   0  0  0  0  0  0  0  0  0  0  0  0
   18.7266   -9.6471   24.8674 O   0  0  0  0  0  0  0  0  0  0  0  0
   18.9242  -12.5431   24.8287 O   0  0  0  0  0  0  0  0  0  0  0  0
   17.4190   -4.9068   27.8608 O   0  0  0  0  0  0  0  0  0  0  0  0
   17.9189   -8.9395   27.8031 O   0  0  0  0  0  0  0  0  0  0  0  0
  1  5  1  0  0  0  0
  1 18  1  6  0  0  0
  2 18  1  1  0  0  0
  2  3  1  0  0  0  0
  2 12  1  0  0  0  0
  3 19  1  6  0  0  0
  3  4  1  0  0  0  0
  4 20  1  1  0  0  0
  4 10  1  0  0  0  0
  5  6  1  0  0  0  0
  5 14  1  6  0  0  0
  6 21  1  1  0  0  0
  7 13  1  6  0  0  0
  7  6  1  0  0  0  0
  8  9  1  1  0  0  0
  8  7  1  0  0  0  0
 10 16  1  6  0  0  0
 11 10  1  0  0  0  0
 12 17  1  6  0  0  0
 12 11  1  0  0  0  0
 15  9  1  0  0  0  0
 22  8  1  0  0  0  0
 22  1  1  0  0  0  0
M  END
>  <CHROM.1>
178.26901049,-55.55243972,54.88564850,17.47615674,-9.15400271,26.60193542
1.28280922,-0.10937515,0.39446931

>  <Name>
lig.pdb

>  <RI>
0

>  <Rbt.Current_Directory>
/home/itssahil/PROJECTS/Mol_Feturizer/New_Systems/rnas/5bxk

>  <Rbt.Executable>
rbdock ($Id: //depot/dev/client3/rdock/2013.1/src/exe/rbdock.cxx#4 $)

>  <Rbt.Library>
libRbt.so (2013.1, Build901 2013/11/27)

>  <Rbt.Parameter_File>
/export/apps/rDock/src/rDock_2013.1_src/data/scripts/dock_solv.prm

>  <Rbt.Receptor>
prm/pocket_docking_2.prm

>  <SCORE>
-6.41126

>  <SCORE.INTER>
-3.73901

>  <SCORE.INTER.CONST>
1

>  <SCORE.INTER.POLAR>
0

>  <SCORE.INTER.ROT>
3

>  <SCORE.INTER.SOLV>
15.4998

>  <SCORE.INTER.VDW>
-13.2593

>  <SCORE.INTER.norm>
-0.169955

>  <SCORE.INTRA>
-2.94006

>  <SCORE.INTRA.DIHEDRAL>
-6.84061

>  <SCORE.INTRA.DIHEDRAL.0>
7.18044

>  <SCORE.INTRA.POLAR>
0

>  <SCORE.INTRA.POLAR.0>
0

>  <SCORE.INTRA.REPUL>
0

>  <SCORE.INTRA.REPUL.0>
0

>  <SCORE.INTRA.SOLV>
0.616873

>  <SCORE.INTRA.SOLV.lig_0>
-72.0615

>  <SCORE.INTRA.VDW>
0.171807

>  <SCORE.INTRA.VDW.0>
-1.54792

>  <SCORE.INTRA.norm>
-0.133639

>  <SCORE.RESTR>
0.267811

>  <SCORE.RESTR.CAVITY>
0.267811

>  <SCORE.RESTR.norm>
0.0121732

>  <SCORE.SYSTEM>
0

>  <SCORE.SYSTEM.CONST>
0

>  <SCORE.SYSTEM.DIHEDRAL>
0

>  <SCORE.SYSTEM.SOLV>
0

>  <SCORE.SYSTEM.norm>
0

>  <SCORE.heavy>
22

>  <SCORE.norm>
-0.291421

>  <RMSD>
6.199

$$$$
lig.pdb
 OpenBabel11021811523D
libRbt.so/2013.1/901 2013/11/27
 22 23  0  0  0  0  0  0  0  0999 V2000
   14.5016   -9.2847   26.0542 C   0  0  1  0  0  0  0  0  0  0  0  0
   16.5648  -10.5876   25.5119 C   0  0  1  0  0  0  0  0  0  0  0  0
   15.8077  -11.7425   24.6274 C   0  0  1  0  0  0  0  0  0  0  0  0
   16.7942  -13.0133   24.5439 C   0  0  2  0  0  0  0  0  0  0  0  0
   13.9215   -7.8256   26.3346 C   0  0  1  0  0  0  0  0  0  0  0  0
   14.5742   -7.2104   27.6334 C   0  0  2  0  0  0  0  0  0  0  0  0
   14.1942   -8.1470   28.8827 C   0  0  1  0  0  0  0  0  0  0  0  0
   14.8224   -9.6269   28.6822 C   0  0  1  0  0  0  0  0  0  0  0  0
   14.5139  -10.6018   29.8521 C   0  0  0  0  0  0  0  0  0  0  0  0
   18.1200  -12.5477   23.7645 C   0  0  1  0  0  0  0  0  0  0  0  0
   18.8271  -11.4044   24.6541 C   0  0  0  0  0  0  0  0  0  0  0  0
   17.8713  -10.1458   24.8101 C   0  0  2  0  0  0  0  0  0  0  0  0
   14.7483   -7.6300   30.1386 F   0  0  0  0  0  0  0  0  0  0  0  0
   14.2213   -7.0098   25.0680 N   0  0  0  0  0  0  0  0  0  0  0  0
   14.9835  -10.1666   31.1164 N   0  0  0  0  0  0  0  0  0  0  0  0
   19.0906  -13.6830   23.6627 N   0  0  0  0  0  0  0  0  0  0  0  0
   18.4938   -9.1089   25.6277 N   0  0  0  0  0  0  0  0  0  0  0  0
   15.8001   -9.4091   25.6289 O   0  0  0  0  0  0  0  0  0  0  0  0
   14.5610  -12.1396   25.3515 O   0  0  0  0  0  0  0  0  0  0  0  0
   16.1614  -13.9952   23.7949 O   0  0  0  0  0  0  0  0  0  0  0  0
   14.1076   -6.1419   27.7946 O   0  0  0  0  0  0  0  0  0  0  0  0
   14.2631  -10.1746   27.3163 O   0  0  0  0  0  0  0  0  0  0  0  0
  1  5  1  0  0  0  0
  1 18  1  1  0  0  0
  2 18  1  6  0  0  0
  2  3  1  0  0  0  0
  2 12  1  0  0  0  0
  3 19  1  1  0  0  0
  3  4  1  0  0  0  0
  4 20  1  6  0  0  0
  4 10  1  0  0  0  0
  5  6  1  0  0  0  0
  5 14  1  6  0  0  0
  6 21  1  1  0  0  0
  7 13  1  1  0  0  0
  7  6  1  0  0  0  0
  8  9  1  1  0  0  0
  8  7  1  0  0  0  0
 10 16  1  1  0  0  0
 11 10  1  0  0  0  0
 12 17  1  1  0  0  0
 12 11  1  0  0  0  0
 15  9  1  0  0  0  0
 22  8  1  0  0  0  0
 22  1  1  0  0  0  0
M  END
>  <CHROM.1>
169.92393910,52.70017870,-59.02756197,15.73049199,-10.04516883,26.45843424
-2.96447164,-1.10673434,2.55754596

>  <Name>
lig.pdb

>  <RI>
0

>  <Rbt.Current_Directory>
/home/itssahil/PROJECTS/Mol_Feturizer/New_Systems/rnas/5bxk

>  <Rbt.Executable>
rbdock ($Id: //depot/dev/client3/rdock/2013.1/src/exe/rbdock.cxx#4 $)

>  <Rbt.Library>
libRbt.so (2013.1, Build901 2013/11/27)

>  <Rbt.Parameter_File>
/export/apps/rDock/src/rDock_2013.1_src/data/scripts/dock_solv.prm

>  <Rbt.Receptor>
prm/pocket_docking_5.prm

>  <SCORE>
-10.2207

>  <SCORE.INTER>
-6.93279

>  <SCORE.INTER.CONST>
1

>  <SCORE.INTER.POLAR>
0

>  <SCORE.INTER.ROT>
3

>  <SCORE.INTER.SOLV>
17.2474

>  <SCORE.INTER.VDW>
-15.971

>  <SCORE.INTER.norm>
-0.315127

>  <SCORE.INTRA>
-3.30433

>  <SCORE.INTRA.DIHEDRAL>
-6.3104

>  <SCORE.INTRA.DIHEDRAL.0>
7.18044

>  <SCORE.INTRA.POLAR>
0

>  <SCORE.INTRA.POLAR.0>
0

>  <SCORE.INTRA.REPUL>
0

>  <SCORE.INTRA.REPUL.0>
0

>  <SCORE.INTRA.SOLV>
-0.754452

>  <SCORE.INTRA.SOLV.lig_0>
-72.0615

>  <SCORE.INTRA.VDW>
0.228098

>  <SCORE.INTRA.VDW.0>
-1.54792

>  <SCORE.INTRA.norm>
-0.150197

>  <SCORE.RESTR>
0.0163802

>  <SCORE.RESTR.CAVITY>
0.0163802

>  <SCORE.RESTR.norm>
0.000744554

>  <SCORE.SYSTEM>
0

>  <SCORE.SYSTEM.CONST>
0

>  <SCORE.SYSTEM.DIHEDRAL>
0

>  <SCORE.SYSTEM.SOLV>
0

>  <SCORE.SYSTEM.norm>
0

>  <SCORE.heavy>
22

>  <SCORE.norm>
-0.464579

>  <RMSD>
6.200

$$$$
lig.pdb
 OpenBabel11021811523D
libRbt.so/2013.1/901 2013/11/27
 22 23  0  0  0  0  0  0  0  0999 V2000
   16.0341   -8.4695   26.5501 C   0  0  1  0  0  0  0  0  0  0  0  0
   16.8029  -10.5842   25.4614 C   0  0  1  0  0  0  0  0  0  0  0  0
   15.7321  -11.5490   24.6793 C   0  0  1  0  0  0  0  0  0  0  0  0
   16.3178  -13.0493   24.7118 C   0  0  2  0  0  0  0  0  0  0  0  0
   14.7878   -8.9364   27.4291 C   0  0  1  0  0  0  0  0  0  0  0  0
   13.4416   -8.7435   26.6279 C   0  0  2  0  0  0  0  0  0  0  0  0
   13.2656   -7.1794   26.3037 C   0  0  1  0  0  0  0  0  0  0  0  0
   14.4716   -6.6679   25.3504 C   0  0  1  0  0  0  0  0  0  0  0  0
   14.3772   -5.1631   24.9745 C   0  0  0  0  0  0  0  0  0  0  0  0
   17.7041  -13.0462   23.8993 C   0  0  1  0  0  0  0  0  0  0  0  0
   18.7240  -12.0781   24.6873 C   0  0  0  0  0  0  0  0  0  0  0  0
   18.1657  -10.5919   24.7283 C   0  0  2  0  0  0  0  0  0  0  0  0
   12.0211   -6.9116   25.5749 F   0  0  0  0  0  0  0  0  0  0  0  0
   15.0641  -10.4026   27.7944 N   0  0  0  0  0  0  0  0  0  0  0  0
   15.4098   -4.7075   24.1177 N   0  0  0  0  0  0  0  0  0  0  0  0
   18.3126  -14.4142   23.9016 N   0  0  0  0  0  0  0  0  0  0  0  0
   19.0728   -9.7075   25.4536 N   0  0  0  0  0  0  0  0  0  0  0  0
   16.4045   -9.2320   25.4713 O   0  0  0  0  0  0  0  0  0  0  0  0
   14.4397  -11.5136   25.4309 O   0  0  0  0  0  0  0  0  0  0  0  0
   15.4179  -13.8723   24.0498 O   0  0  0  0  0  0  0  0  0  0  0  0
   12.5597   -9.0964   27.3228 O   0  0  0  0  0  0  0  0  0  0  0  0
   15.8140   -6.9867   26.1084 O   0  0  0  0  0  0  0  0  0  0  0  0
  1  5  1  0  0  0  0
  1 18  1  6  0  0  0
  2 18  1  6  0  0  0
  2  3  1  0  0  0  0
  2 12  1  0  0  0  0
  3 19  1  1  0  0  0
  3  4  1  0  0  0  0
  4 20  1  6  0  0  0
  4 10  1  0  0  0  0
  5  6  1  0  0  0  0
  5 14  1  6  0  0  0
  6 21  1  1  0  0  0
  7 13  1  6  0  0  0
  7  6  1  0  0  0  0
  8  9  1  1  0  0  0
  8  7  1  0  0  0  0
 10 16  1  1  0  0  0
 11 10  1  0  0  0  0
 12 17  1  1  0  0  0
 12 11  1  0  0  0  0
 15  9  1  0  0  0  0
 22  8  1  0  0  0  0
 22  1  1  0  0  0  0
M  END
>  <CHROM.1>
-59.35579064,113.46850100,-178.72833016,15.57042629,-9.64147920,25.48777062
-2.11371808,-0.33603753,-3.12380521

>  <Name>
lig.pdb

>  <RI>
0

>  <Rbt.Current_Directory>
/home/itssahil/PROJECTS/Mol_Feturizer/New_Systems/rnas/5bxk

>  <Rbt.Executable>
rbdock ($Id: //depot/dev/client3/rdock/2013.1/src/exe/rbdock.cxx#4 $)

>  <Rbt.Library>
libRbt.so (2013.1, Build901 2013/11/27)

>  <Rbt.Parameter_File>
/export/apps/rDock/src/rDock_2013.1_src/data/scripts/dock_solv.prm

>  <Rbt.Receptor>
prm/pocket_docking_4.prm

>  <SCORE>
-6.64869

>  <SCORE.INTER>
-7.25873

>  <SCORE.INTER.CONST>
1

>  <SCORE.INTER.POLAR>
0

>  <SCORE.INTER.ROT>
3

>  <SCORE.INTER.SOLV>
16.9539

>  <SCORE.INTER.VDW>
-16.0904

>  <SCORE.INTER.norm>
-0.329942

>  <SCORE.INTRA>
0.610032

>  <SCORE.INTRA.DIHEDRAL>
-0.0455192

>  <SCORE.INTRA.DIHEDRAL.0>
7.18044

>  <SCORE.INTRA.POLAR>
0

>  <SCORE.INTRA.POLAR.0>
0

>  <SCORE.INTRA.REPUL>
0

>  <SCORE.INTRA.REPUL.0>
0

>  <SCORE.INTRA.SOLV>
1.76016

>  <SCORE.INTRA.SOLV.lig_0>
-72.0615

>  <SCORE.INTRA.VDW>
-0.24729

>  <SCORE.INTRA.VDW.0>
-1.54792

>  <SCORE.INTRA.norm>
0.0277287

>  <SCORE.RESTR>
0

>  <SCORE.RESTR.CAVITY>
0

>  <SCORE.RESTR.norm>
0

>  <SCORE.SYSTEM>
0

>  <SCORE.SYSTEM.CONST>
0

>  <SCORE.SYSTEM.DIHEDRAL>
0

>  <SCORE.SYSTEM.SOLV>
0

>  <SCORE.SYSTEM.norm>
0

>  <SCORE.heavy>
22

>  <SCORE.norm>
-0.302213

>  <RMSD>
6.218

$$$$
lig.pdb
 OpenBabel11021811523D
libRbt.so/2013.1/901 2013/11/27
 22 23  0  0  0  0  0  0  0  0999 V2000
   15.5093   -7.0646   26.6552 C   0  0  1  0  0  0  0  0  0  0  0  0
   15.6639   -9.4092   25.8025 C   0  0  1  0  0  0  0  0  0  0  0  0
   17.2901   -9.6182   25.8317 C   0  0  1  0  0  0  0  0  0  0  0  0
   17.6452  -10.8029   24.7995 C   0  0  2  0  0  0  0  0  0  0  0  0
   14.8013   -6.1019   27.7117 C   0  0  1  0  0  0  0  0  0  0  0  0
   13.2638   -5.9570   27.3854 C   0  0  2  0  0  0  0  0  0  0  0  0
   13.1160   -5.2941   25.9290 C   0  0  1  0  0  0  0  0  0  0  0  0
   13.7577   -6.2684   24.8047 C   0  0  1  0  0  0  0  0  0  0  0  0
   13.6498   -5.7111   23.3582 C   0  0  0  0  0  0  0  0  0  0  0  0
   16.9395  -12.1425   25.3377 C   0  0  1  0  0  0  0  0  0  0  0  0
   15.3470  -11.8947   25.3092 C   0  0  0  0  0  0  0  0  0  0  0  0
   14.9496  -10.6982   26.2748 C   0  0  2  0  0  0  0  0  0  0  0  0
   11.7097   -5.1050   25.5575 F   0  0  0  0  0  0  0  0  0  0  0  0
   15.0663   -6.7305   29.0880 N   0  0  0  0  0  0  0  0  0  0  0  0
   14.2985   -4.4669   23.1600 N   0  0  0  0  0  0  0  0  0  0  0  0
   17.2189  -13.2863   24.4130 N   0  0  0  0  0  0  0  0  0  0  0  0
   13.5108  -10.4526   26.2460 N   0  0  0  0  0  0  0  0  0  0  0  0
   15.2319   -8.4077   26.6956 O   0  0  0  0  0  0  0  0  0  0  0  0
   17.9298   -8.3517   25.3592 O   0  0  0  0  0  0  0  0  0  0  0  0
   19.0203  -10.9875   24.8197 O   0  0  0  0  0  0  0  0  0  0  0  0
   12.7957   -5.2351   28.1886 O   0  0  0  0  0  0  0  0  0  0  0  0
   15.2581   -6.5082   25.2167 O   0  0  0  0  0  0  0  0  0  0  0  0
  1  5  1  0  0  0  0
  1 18  1  6  0  0  0
  2 18  1  1  0  0  0
  2  3  1  0  0  0  0
  2 12  1  0  0  0  0
  3 19  1  6  0  0  0
  3  4  1  0  0  0  0
  4 20  1  1  0  0  0
  4 10  1  0  0  0  0
  5  6  1  0  0  0  0
  5 14  1  1  0  0  0
  6 21  1  1  0  0  0
  7 13  1  6  0  0  0
  7  6  1  0  0  0  0
  8  9  1  6  0  0  0
  8  7  1  0  0  0  0
 10 16  1  6  0  0  0
 11 10  1  0  0  0  0
 12 17  1  6  0  0  0
 12 11  1  0  0  0  0
 15  9  1  0  0  0  0
 22  8  1  0  0  0  0
 22  1  1  0  0  0  0
M  END
>  <CHROM.1>
174.80256920,64.74703347,60.05150066,15.14921405,-8.14110969,25.81149371
2.76616680,0.95803786,-0.97222247

>  <Name>
lig.pdb

>  <RI>
0

>  <Rbt.Current_Directory>
/home/itssahil/PROJECTS/Mol_Feturizer/New_Systems/rnas/5bxk

>  <Rbt.Executable>
rbdock ($Id: //depot/dev/client3/rdock/2013.1/src/exe/rbdock.cxx#4 $)

>  <Rbt.Library>
libRbt.so (2013.1, Build901 2013/11/27)

>  <Rbt.Parameter_File>
/export/apps/rDock/src/rDock_2013.1_src/data/scripts/dock_solv.prm

>  <Rbt.Receptor>
prm/pocket_docking_6.prm

>  <SCORE>
-8.35181

>  <SCORE.INTER>
-4.55172

>  <SCORE.INTER.CONST>
1

>  <SCORE.INTER.POLAR>
0

>  <SCORE.INTER.ROT>
3

>  <SCORE.INTER.SOLV>
15.7197

>  <SCORE.INTER.VDW>
-13.8744

>  <SCORE.INTER.norm>
-0.206896

>  <SCORE.INTRA>
-3.80009

>  <SCORE.INTRA.DIHEDRAL>
-6.80683

>  <SCORE.INTRA.DIHEDRAL.0>
7.18044

>  <SCORE.INTRA.POLAR>
0

>  <SCORE.INTRA.POLAR.0>
0

>  <SCORE.INTRA.REPUL>
0

>  <SCORE.INTRA.REPUL.0>
0

>  <SCORE.INTRA.SOLV>
-0.696957

>  <SCORE.INTRA.SOLV.lig_0>
-72.0615

>  <SCORE.INTRA.VDW>
-0.0482

>  <SCORE.INTRA.VDW.0>
-1.54792

>  <SCORE.INTRA.norm>
-0.172732

>  <SCORE.RESTR>
0

>  <SCORE.RESTR.CAVITY>
0

>  <SCORE.RESTR.norm>
0

>  <SCORE.SYSTEM>
0

>  <SCORE.SYSTEM.CONST>
0

>  <SCORE.SYSTEM.DIHEDRAL>
0

>  <SCORE.SYSTEM.SOLV>
0

>  <SCORE.SYSTEM.norm>
0

>  <SCORE.heavy>
22

>  <SCORE.norm>
-0.379628

>  <RMSD>
6.226

$$$$
lig.pdb
 OpenBabel11021811523D
libRbt.so/2013.1/901 2013/11/27
 22 23  0  0  0  0  0  0  0  0999 V2000
   14.5604   -7.7749   27.4450 C   0  0  1  0  0  0  0  0  0  0  0  0
   15.5407   -9.6607   26.1293 C   0  0  1  0  0  0  0  0  0  0  0  0
   14.7621  -11.0908   25.9344 C   0  0  1  0  0  0  0  0  0  0  0  0
   15.8805  -12.2191   25.6677 C   0  0  2  0  0  0  0  0  0  0  0  0
   15.7290   -6.7264   27.7265 C   0  0  1  0  0  0  0  0  0  0  0  0
   17.0422   -7.4712   28.1869 C   0  0  2  0  0  0  0  0  0  0  0  0
   16.7286   -8.2488   29.5577 C   0  0  1  0  0  0  0  0  0  0  0  0
   15.5945   -9.3793   29.3112 C   0  0  1  0  0  0  0  0  0  0  0  0
   15.2338  -10.1924   30.5853 C   0  0  0  0  0  0  0  0  0  0  0  0
   16.6300  -11.8445   24.2966 C   0  0  1  0  0  0  0  0  0  0  0  0
   17.3691  -10.4296   24.5209 C   0  0  0  0  0  0  0  0  0  0  0  0
   16.3104   -9.2896   24.8391 C   0  0  2  0  0  0  0  0  0  0  0  0
   17.9104   -8.9535   30.0661 F   0  0  0  0  0  0  0  0  0  0  0  0
   15.9097   -5.9453   26.4161 N   0  0  0  0  0  0  0  0  0  0  0  0
   14.1335  -11.0713   30.4272 N   0  0  0  0  0  0  0  0  0  0  0  0
   17.6970  -12.8502   23.9942 N   0  0  0  0  0  0  0  0  0  0  0  0
   16.9685   -8.0054   25.0604 N   0  0  0  0  0  0  0  0  0  0  0  0
   14.6526   -8.5870   26.3429 O   0  0  0  0  0  0  0  0  0  0  0  0
   14.0448  -11.4066   27.2079 O   0  0  0  0  0  0  0  0  0  0  0  0
   15.2294  -13.4329   25.4996 O   0  0  0  0  0  0  0  0  0  0  0  0
   17.8648   -6.6530   28.3853 O   0  0  0  0  0  0  0  0  0  0  0  0
   14.3345   -8.6367   28.7287 O   0  0  0  0  0  0  0  0  0  0  0  0
  1  5  1  0  0  0  0
  1 18  1  6  0  0  0
  2 18  1  6  0  0  0
  2  3  1  0  0  0  0
  2 12  1  0  0  0  0
  3 19  1  1  0  0  0
  3  4  1  0  0  0  0
  4 20  1  6  0  0  0
  4 10  1  0  0  0  0
  5  6  1  0  0  0  0
  5 14  1  6  0  0  0
  6 21  1  1  0  0  0
  7 13  1  6  0  0  0
  7  6  1  0  0  0  0
  8  9  1  1  0  0  0
  8  7  1  0  0  0  0
 10 16  1  1  0  0  0
 11 10  1  0  0  0  0
 12 17  1  1  0  0  0
 12 11  1  0  0  0  0
 15  9  1  0  0  0  0
 22  8  1  0  0  0  0
 22  1  1  0  0  0  0
M  END
>  <CHROM.1>
70.53982559,118.19441793,172.73723081,15.92592304,-9.54206538,27.16332049
-1.54098823,-1.16174620,-2.33449336

>  <Name>
lig.pdb

>  <RI>
0

>  <Rbt.Current_Directory>
/home/itssahil/PROJECTS/Mol_Feturizer/New_Systems/rnas/5bxk

>  <Rbt.Executable>
rbdock ($Id: //depot/dev/client3/rdock/2013.1/src/exe/rbdock.cxx#4 $)

>  <Rbt.Library>
libRbt.so (2013.1, Build901 2013/11/27)

>  <Rbt.Parameter_File>
/export/apps/rDock/src/rDock_2013.1_src/data/scripts/dock_solv.prm

>  <Rbt.Receptor>
prm/pocket_docking_5.prm

>  <SCORE>
-4.31585

>  <SCORE.INTER>
-5.93466

>  <SCORE.INTER.CONST>
1

>  <SCORE.INTER.POLAR>
0

>  <SCORE.INTER.ROT>
3

>  <SCORE.INTER.SOLV>
16.9485

>  <SCORE.INTER.VDW>
-15.2059

>  <SCORE.INTER.norm>
-0.269757

>  <SCORE.INTRA>
1.61882

>  <SCORE.INTRA.DIHEDRAL>
0.840331

>  <SCORE.INTRA.DIHEDRAL.0>
7.18044

>  <SCORE.INTRA.POLAR>
0

>  <SCORE.INTRA.POLAR.0>
0

>  <SCORE.INTRA.REPUL>
0

>  <SCORE.INTRA.REPUL.0>
0

>  <SCORE.INTRA.SOLV>
4.92939

>  <SCORE.INTRA.SOLV.lig_0>
-72.0615

>  <SCORE.INTRA.VDW>
-1.26604

>  <SCORE.INTRA.VDW.0>
-1.54792

>  <SCORE.INTRA.norm>
0.0735826

>  <SCORE.RESTR>
0

>  <SCORE.RESTR.CAVITY>
0

>  <SCORE.RESTR.norm>
0

>  <SCORE.SYSTEM>
0

>  <SCORE.SYSTEM.CONST>
0

>  <SCORE.SYSTEM.DIHEDRAL>
0

>  <SCORE.SYSTEM.SOLV>
0

>  <SCORE.SYSTEM.norm>
0

>  <SCORE.heavy>
22

>  <SCORE.norm>
-0.196175

>  <RMSD>
6.252

$$$$
lig.pdb
 OpenBabel11021811523D
libRbt.so/2013.1/901 2013/11/27
 22 23  0  0  0  0  0  0  0  0999 V2000
   16.0657   -8.4440   26.5446 C   0  0  1  0  0  0  0  0  0  0  0  0
   16.7372  -10.6002   25.4730 C   0  0  1  0  0  0  0  0  0  0  0  0
   15.5760  -11.5278   24.7798 C   0  0  1  0  0  0  0  0  0  0  0  0
   16.0898  -13.0542   24.8151 C   0  0  2  0  0  0  0  0  0  0  0  0
   14.8355   -8.8833   27.4599 C   0  0  1  0  0  0  0  0  0  0  0  0
   13.4735   -8.6939   26.6851 C   0  0  2  0  0  0  0  0  0  0  0  0
   13.3032   -7.1348   26.3351 C   0  0  1  0  0  0  0  0  0  0  0  0
   14.4918   -6.6519   25.3456 C   0  0  1  0  0  0  0  0  0  0  0  0
   14.4015   -5.1538   24.9433 C   0  0  0  0  0  0  0  0  0  0  0  0
   17.4232  -13.1376   23.9222 C   0  0  1  0  0  0  0  0  0  0  0  0
   18.5341  -12.2040   24.6241 C   0  0  0  0  0  0  0  0  0  0  0  0
   18.0514  -10.6915   24.6610 C   0  0  2  0  0  0  0  0  0  0  0  0
   12.0451   -6.8700   25.6291 F   0  0  0  0  0  0  0  0  0  0  0  0
   15.1078  -10.3448   27.8469 N   0  0  0  0  0  0  0  0  0  0  0  0
   15.4154   -4.7248   24.0510 N   0  0  0  0  0  0  0  0  0  0  0  0
   17.9642  -14.5336   23.9226 N   0  0  0  0  0  0  0  0  0  0  0  0
   19.0421   -9.8373   25.3091 N   0  0  0  0  0  0  0  0  0  0  0  0
   16.4056   -9.2301   25.4726 O   0  0  0  0  0  0  0  0  0  0  0  0
   14.3345  -11.4120   25.6054 O   0  0  0  0  0  0  0  0  0  0  0  0
   15.1131  -13.8460   24.2282 O   0  0  0  0  0  0  0  0  0  0  0  0
   12.6044   -9.0259   27.4061 O   0  0  0  0  0  0  0  0  0  0  0  0
   15.8481   -6.9681   26.0797 O   0  0  0  0  0  0  0  0  0  0  0  0
  1  5  1  0  0  0  0
  1 18  1  6  0  0  0
  2 18  1  6  0  0  0
  2  3  1  0  0  0  0
  2 12  1  0  0  0  0
  3 19  1  1  0  0  0
  3  4  1  0  0  0  0
  4 20  1  6  0  0  0
  4 10  1  0  0  0  0
  5  6  1  0  0  0  0
  5 14  1  6  0  0  0
  6 21  1  1  0  0  0
  7 13  1  6  0  0  0
  7  6  1  0  0  0  0
  8  9  1  1  0  0  0
  8  7  1  0  0  0  0
 10 16  1  1  0  0  0
 11 10  1  0  0  0  0
 12 17  1  1  0  0  0
 12 11  1  0  0  0  0
 15  9  1  0  0  0  0
 22  8  1  0  0  0  0
 22  1  1  0  0  0  0
M  END
>  <CHROM.1>
-56.38938985,109.51128125,-178.49044635,15.50478102,-9.64241134,25.51320179
-2.07814170,-0.36521658,-3.13339767

>  <Name>
lig.pdb

>  <RI>
0

>  <Rbt.Current_Directory>
/home/itssahil/PROJECTS/Mol_Feturizer/New_Systems/rnas/5bxk

>  <Rbt.Executable>
rbdock ($Id: //depot/dev/client3/rdock/2013.1/src/exe/rbdock.cxx#4 $)

>  <Rbt.Library>
libRbt.so (2013.1, Build901 2013/11/27)

>  <Rbt.Parameter_File>
/export/apps/rDock/src/rDock_2013.1_src/data/scripts/dock_solv.prm

>  <Rbt.Receptor>
prm/pocket_docking_4.prm

>  <SCORE>
-6.61632

>  <SCORE.INTER>
-7.35836

>  <SCORE.INTER.CONST>
1

>  <SCORE.INTER.POLAR>
0

>  <SCORE.INTER.ROT>
3

>  <SCORE.INTER.SOLV>
17.0536

>  <SCORE.INTER.VDW>
-16.1901

>  <SCORE.INTER.norm>
-0.334471

>  <SCORE.INTRA>
0.742046

>  <SCORE.INTRA.DIHEDRAL>
-0.304206

>  <SCORE.INTRA.DIHEDRAL.0>
7.18044

>  <SCORE.INTRA.POLAR>
0

>  <SCORE.INTRA.POLAR.0>
0

>  <SCORE.INTRA.REPUL>
0

>  <SCORE.INTRA.REPUL.0>
0

>  <SCORE.INTRA.SOLV>
1.93973

>  <SCORE.INTRA.SOLV.lig_0>
-72.0615

>  <SCORE.INTRA.VDW>
-0.0757182

>  <SCORE.INTRA.VDW.0>
-1.54792

>  <SCORE.INTRA.norm>
0.0337294

>  <SCORE.RESTR>
0

>  <SCORE.RESTR.CAVITY>
0

>  <SCORE.RESTR.norm>
0

>  <SCORE.SYSTEM>
0

>  <SCORE.SYSTEM.CONST>
0

>  <SCORE.SYSTEM.DIHEDRAL>
0

>  <SCORE.SYSTEM.SOLV>
0

>  <SCORE.SYSTEM.norm>
0

>  <SCORE.heavy>
22

>  <SCORE.norm>
-0.300742

>  <RMSD>
6.266

$$$$
lig.pdb
 OpenBabel11021811523D
libRbt.so/2013.1/901 2013/11/27
 22 23  0  0  0  0  0  0  0  0999 V2000
   16.6052   -7.3552   27.2680 C   0  0  1  0  0  0  0  0  0  0  0  0
   16.0368   -9.0929   25.5634 C   0  0  1  0  0  0  0  0  0  0  0  0
   17.3017  -10.1176   25.7618 C   0  0  1  0  0  0  0  0  0  0  0  0
   16.8270  -11.5751   25.2663 C   0  0  2  0  0  0  0  0  0  0  0  0
   16.9238   -5.8109   27.5080 C   0  0  1  0  0  0  0  0  0  0  0  0
   18.3343   -5.4364   26.9065 C   0  0  2  0  0  0  0  0  0  0  0  0
   19.4545   -6.3012   27.6677 C   0  0  1  0  0  0  0  0  0  0  0  0
   19.2192   -7.8812   27.3973 C   0  0  1  0  0  0  0  0  0  0  0  0
   20.2667   -8.7974   28.0886 C   0  0  0  0  0  0  0  0  0  0  0  0
   15.6236  -12.0440   26.2224 C   0  0  1  0  0  0  0  0  0  0  0  0
   14.4073  -11.0073   26.0121 C   0  0  0  0  0  0  0  0  0  0  0  0
   14.8421   -9.5408   26.4391 C   0  0  2  0  0  0  0  0  0  0  0  0
   20.8033   -5.9950   27.1791 F   0  0  0  0  0  0  0  0  0  0  0  0
   15.7676   -5.0420   26.8508 N   0  0  0  0  0  0  0  0  0  0  0  0
   21.6077   -8.5464   27.7057 N   0  0  0  0  0  0  0  0  0  0  0  0
   15.1232  -13.3925   25.8070 N   0  0  0  0  0  0  0  0  0  0  0  0
   13.7540   -8.5885   26.2383 N   0  0  0  0  0  0  0  0  0  0  0  0
   16.3303   -7.7829   25.9936 O   0  0  0  0  0  0  0  0  0  0  0  0
   18.4219   -9.6471   24.8900 O   0  0  0  0  0  0  0  0  0  0  0  0
   17.8918  -12.4492   25.4328 O   0  0  0  0  0  0  0  0  0  0  0  0
   18.5189   -4.2931   27.1164 O   0  0  0  0  0  0  0  0  0  0  0  0
   17.7587   -8.2109   27.8837 O   0  0  0  0  0  0  0  0  0  0  0  0
  1  5  1  0  0  0  0
  1 18  1  6  0  0  0
  2 18  1  1  0  0  0
  2  3  1  0  0  0  0
  2 12  1  0  0  0  0
  3 19  1  6  0  0  0
  3  4  1  0  0  0  0
  4 20  1  1  0  0  0
  4 10  1  0  0  0  0
  5  6  1  0  0  0  0
  5 14  1  6  0  0  0
  6 21  1  1  0  0  0
  7 13  1  6  0  0  0
  7  6  1  0  0  0  0
  8  9  1  1  0  0  0
  8  7  1  0  0  0  0
 10 16  1  6  0  0  0
 11 10  1  0  0  0  0
 12 17  1  6  0  0  0
 12 11  1  0  0  0  0
 15  9  1  0  0  0  0
 22  8  1  0  0  0  0
 22  1  1  0  0  0  0
M  END
>  <CHROM.1>
179.41079337,-65.01682939,-58.81343283,17.43153822,-8.54432024,26.59851825
1.02160010,-0.14781252,0.19315010

>  <Name>
lig.pdb

>  <RI>
0

>  <Rbt.Current_Directory>
/home/itssahil/PROJECTS/Mol_Feturizer/New_Systems/rnas/5bxk

>  <Rbt.Executable>
rbdock ($Id: //depot/dev/client3/rdock/2013.1/src/exe/rbdock.cxx#4 $)

>  <Rbt.Library>
libRbt.so (2013.1, Build901 2013/11/27)

>  <Rbt.Parameter_File>
/export/apps/rDock/src/rDock_2013.1_src/data/scripts/dock_solv.prm

>  <Rbt.Receptor>
prm/pocket_docking_3.prm

>  <SCORE>
-7.39371

>  <SCORE.INTER>
-4.31187

>  <SCORE.INTER.CONST>
1

>  <SCORE.INTER.POLAR>
0

>  <SCORE.INTER.ROT>
3

>  <SCORE.INTER.SOLV>
19.748

>  <SCORE.INTER.VDW>
-15.0572

>  <SCORE.INTER.norm>
-0.195994

>  <SCORE.INTRA>
-3.08184

>  <SCORE.INTRA.DIHEDRAL>
-6.91455

>  <SCORE.INTRA.DIHEDRAL.0>
7.18044

>  <SCORE.INTRA.POLAR>
0

>  <SCORE.INTRA.POLAR.0>
0

>  <SCORE.INTRA.REPUL>
0

>  <SCORE.INTRA.REPUL.0>
0

>  <SCORE.INTRA.SOLV>
0.503225

>  <SCORE.INTRA.SOLV.lig_0>
-72.0615

>  <SCORE.INTRA.VDW>
0.123823

>  <SCORE.INTRA.VDW.0>
-1.54792

>  <SCORE.INTRA.norm>
-0.140084

>  <SCORE.RESTR>
0

>  <SCORE.RESTR.CAVITY>
0

>  <SCORE.RESTR.norm>
0

>  <SCORE.SYSTEM>
0

>  <SCORE.SYSTEM.CONST>
0

>  <SCORE.SYSTEM.DIHEDRAL>
0

>  <SCORE.SYSTEM.SOLV>
0

>  <SCORE.SYSTEM.norm>
0

>  <SCORE.heavy>
22

>  <SCORE.norm>
-0.336078

>  <RMSD>
6.270

$$$$
lig.pdb
 OpenBabel11021811523D
libRbt.so/2013.1/901 2013/11/27
 22 23  0  0  0  0  0  0  0  0999 V2000
   16.4871   -7.4996   27.2371 C   0  0  1  0  0  0  0  0  0  0  0  0
   15.7958   -9.2488   25.5906 C   0  0  1  0  0  0  0  0  0  0  0  0
   17.1165  -10.2209   25.5908 C   0  0  1  0  0  0  0  0  0  0  0  0
   16.6353  -11.6922   25.1448 C   0  0  2  0  0  0  0  0  0  0  0  0
   16.8355   -5.9561   27.4384 C   0  0  1  0  0  0  0  0  0  0  0  0
   18.1873   -5.5939   26.7087 C   0  0  2  0  0  0  0  0  0  0  0  0
   19.3672   -6.4620   27.3693 C   0  0  1  0  0  0  0  0  0  0  0  0
   19.0988   -8.0418   27.1303 C   0  0  1  0  0  0  0  0  0  0  0  0
   20.1994   -8.9613   27.7283 C   0  0  0  0  0  0  0  0  0  0  0  0
   15.6008  -12.2212   26.2547 C   0  0  1  0  0  0  0  0  0  0  0  0
   14.3260  -11.2348   26.2361 C   0  0  0  0  0  0  0  0  0  0  0  0
   14.7575   -9.7556   26.6202 C   0  0  2  0  0  0  0  0  0  0  0  0
   20.6675   -6.1670   26.7580 F   0  0  0  0  0  0  0  0  0  0  0  0
   15.6288   -5.1832   26.8851 N   0  0  0  0  0  0  0  0  0  0  0  0
   20.3245   -8.8848   29.1378 N   0  0  0  0  0  0  0  0  0  0  0  0
   15.1012  -13.5855   25.8934 N   0  0  0  0  0  0  0  0  0  0  0  0
   13.6142   -8.8482   26.5914 N   0  0  0  0  0  0  0  0  0  0  0  0
   16.0945   -7.9319   25.9955 O   0  0  0  0  0  0  0  0  0  0  0  0
   18.0808   -9.6947   24.5760 O   0  0  0  0  0  0  0  0  0  0  0  0
   17.7474  -12.5221   25.1442 O   0  0  0  0  0  0  0  0  0  0  0  0
   18.3972   -4.4507   26.8944 O   0  0  0  0  0  0  0  0  0  0  0  0
   17.6868   -8.3596   27.7498 O   0  0  0  0  0  0  0  0  0  0  0  0
  1  5  1  0  0  0  0
  1 18  1  6  0  0  0
  2 18  1  1  0  0  0
  2  3  1  0  0  0  0
  2 12  1  0  0  0  0
  3 19  1  6  0  0  0
  3  4  1  0  0  0  0
  4 20  1  1  0  0  0
  4 10  1  0  0  0  0
  5  6  1  0  0  0  0
  5 14  1  6  0  0  0
  6 21  1  1  0  0  0
  7 13  1  6  0  0  0
  7  6  1  0  0  0  0
  8  9  1  1  0  0  0
  8  7  1  0  0  0  0
 10 16  1  6  0  0  0
 11 10  1  0  0  0  0
 12 17  1  6  0  0  0
 12 11  1  0  0  0  0
 15  9  1  0  0  0  0
 22  8  1  0  0  0  0
 22  1  1  0  0  0  0
M  END
>  <CHROM.1>
177.21553524,-67.45728463,62.83738484,17.24563628,-8.70724526,26.56517926
1.05874132,-0.14084735,0.17551492

>  <Name>
lig.pdb

>  <RI>
0

>  <Rbt.Current_Directory>
/home/itssahil/PROJECTS/Mol_Feturizer/New_Systems/rnas/5bxk

>  <Rbt.Executable>
rbdock ($Id: //depot/dev/client3/rdock/2013.1/src/exe/rbdock.cxx#4 $)

>  <Rbt.Library>
libRbt.so (2013.1, Build901 2013/11/27)

>  <Rbt.Parameter_File>
/export/apps/rDock/src/rDock_2013.1_src/data/scripts/dock_solv.prm

>  <Rbt.Receptor>
prm/pocket_docking_3.prm

>  <SCORE>
-8.73286

>  <SCORE.INTER>
-5.65622

>  <SCORE.INTER.CONST>
1

>  <SCORE.INTER.POLAR>
0

>  <SCORE.INTER.ROT>
3

>  <SCORE.INTER.SOLV>
16.1975

>  <SCORE.INTER.VDW>
-14.77

>  <SCORE.INTER.norm>
-0.257101

>  <SCORE.INTRA>
-3.07664

>  <SCORE.INTRA.DIHEDRAL>
-6.70764

>  <SCORE.INTRA.DIHEDRAL.0>
7.18044

>  <SCORE.INTRA.POLAR>
0

>  <SCORE.INTRA.POLAR.0>
0

>  <SCORE.INTRA.REPUL>
0

>  <SCORE.INTRA.REPUL.0>
0

>  <SCORE.INTRA.SOLV>
0.499406

>  <SCORE.INTRA.SOLV.lig_0>
-72.0615

>  <SCORE.INTRA.VDW>
0.0274766

>  <SCORE.INTRA.VDW.0>
-1.54792

>  <SCORE.INTRA.norm>
-0.139847

>  <SCORE.RESTR>
0

>  <SCORE.RESTR.CAVITY>
0

>  <SCORE.RESTR.norm>
0

>  <SCORE.SYSTEM>
0

>  <SCORE.SYSTEM.CONST>
0

>  <SCORE.SYSTEM.DIHEDRAL>
0

>  <SCORE.SYSTEM.SOLV>
0

>  <SCORE.SYSTEM.norm>
0

>  <SCORE.heavy>
22

>  <SCORE.norm>
-0.396948

>  <RMSD>
6.271

$$$$
lig.pdb
 OpenBabel11021811523D
libRbt.so/2013.1/901 2013/11/27
 22 23  0  0  0  0  0  0  0  0999 V2000
   17.5482  -13.8989   24.2950 C   0  0  1  0  0  0  0  0  0  0  0  0
   16.2986  -11.9104   25.1509 C   0  0  1  0  0  0  0  0  0  0  0  0
   16.0383  -10.4086   24.5458 C   0  0  1  0  0  0  0  0  0  0  0  0
   15.5586   -9.4713   25.7651 C   0  0  2  0  0  0  0  0  0  0  0  0
   19.1135  -13.6239   24.4303 C   0  0  1  0  0  0  0  0  0  0  0  0
   19.7080  -13.1201   23.0576 C   0  0  2  0  0  0  0  0  0  0  0  0
   19.4973  -14.2754   21.9607 C   0  0  1  0  0  0  0  0  0  0  0  0
   17.9164  -14.5455   21.7312 C   0  0  1  0  0  0  0  0  0  0  0  0
   17.6160  -15.6443   20.6744 C   0  0  0  0  0  0  0  0  0  0  0  0
   14.1666  -10.0601   26.3107 C   0  0  1  0  0  0  0  0  0  0  0  0
   14.4582  -11.5390   26.8819 C   0  0  0  0  0  0  0  0  0  0  0  0
   14.9845  -12.4916   25.7254 C   0  0  2  0  0  0  0  0  0  0  0  0
   20.0445  -13.8920   20.6549 F   0  0  0  0  0  0  0  0  0  0  0  0
   19.2573  -12.5939   25.5609 N   0  0  0  0  0  0  0  0  0  0  0  0
   18.1309  -15.3710   19.3828 N   0  0  0  0  0  0  0  0  0  0  0  0
   13.6684   -9.2398   27.4597 N   0  0  0  0  0  0  0  0  0  0  0  0
   15.2679  -13.8307   26.2332 N   0  0  0  0  0  0  0  0  0  0  0  0
   16.6987  -12.8299   24.1601 O   0  0  0  0  0  0  0  0  0  0  0  0
   17.3364   -9.8905   24.0140 O   0  0  0  0  0  0  0  0  0  0  0  0
   15.3342   -8.1982   25.2609 O   0  0  0  0  0  0  0  0  0  0  0  0
   20.8606  -12.9397   23.2134 O   0  0  0  0  0  0  0  0  0  0  0  0
   17.3128  -14.9204   23.1361 O   0  0  0  0  0  0  0  0  0  0  0  0
  1  5  1  0  0  0  0
  1 18  1  6  0  0  0
  2 18  1  6  0  0  0
  2  3  1  0  0  0  0
  2 12  1  0  0  0  0
  3 19  1  1  0  0  0
  3  4  1  0  0  0  0
  4 20  1  6  0  0  0
  4 10  1  0  0  0  0
  5  6  1  0  0  0  0
  5 14  1  1  0  0  0
  6 21  1  1  0  0  0
  7 13  1  6  0  0  0
  7  6  1  0  0  0  0
  8  9  1  6  0  0  0
  8  7  1  0  0  0  0
 10 16  1  1  0  0  0
 11 10  1  0  0  0  0
 12 17  1  1  0  0  0
 12 11  1  0  0  0  0
 15  9  1  0  0  0  0
 22  8  1  0  0  0  0
 22  1  1  0  0  0  0
M  END
>  <CHROM.1>
-74.07327856,147.22326974,-59.41276375,17.18784317,-12.48876964,24.00768176
0.89625993,-0.50695870,-2.69256527

>  <Name>
lig.pdb

>  <RI>
0

>  <Rbt.Current_Directory>
/home/itssahil/PROJECTS/Mol_Feturizer/New_Systems/rnas/5bxk

>  <Rbt.Executable>
rbdock ($Id: //depot/dev/client3/rdock/2013.1/src/exe/rbdock.cxx#4 $)

>  <Rbt.Library>
libRbt.so (2013.1, Build901 2013/11/27)

>  <Rbt.Parameter_File>
/export/apps/rDock/src/rDock_2013.1_src/data/scripts/dock_solv.prm

>  <Rbt.Receptor>
prm/pocket_docking_7.prm

>  <SCORE>
-8.97931

>  <SCORE.INTER>
-9.06218

>  <SCORE.INTER.CONST>
1

>  <SCORE.INTER.POLAR>
0

>  <SCORE.INTER.ROT>
3

>  <SCORE.INTER.SOLV>
23.1675

>  <SCORE.INTER.VDW>
-19.364

>  <SCORE.INTER.norm>
-0.411917

>  <SCORE.INTRA>
0.0828713

>  <SCORE.INTRA.DIHEDRAL>
-2.02308

>  <SCORE.INTRA.DIHEDRAL.0>
7.18044

>  <SCORE.INTRA.POLAR>
0

>  <SCORE.INTRA.POLAR.0>
0

>  <SCORE.INTRA.REPUL>
0

>  <SCORE.INTRA.REPUL.0>
0

>  <SCORE.INTRA.SOLV>
2.00296

>  <SCORE.INTRA.SOLV.lig_0>
-72.0615

>  <SCORE.INTRA.VDW>
0.09293

>  <SCORE.INTRA.VDW.0>
-1.54792

>  <SCORE.INTRA.norm>
0.00376688

>  <SCORE.RESTR>
0

>  <SCORE.RESTR.CAVITY>
0

>  <SCORE.RESTR.norm>
0

>  <SCORE.SYSTEM>
0

>  <SCORE.SYSTEM.CONST>
0

>  <SCORE.SYSTEM.DIHEDRAL>
0

>  <SCORE.SYSTEM.SOLV>
0

>  <SCORE.SYSTEM.norm>
0

>  <SCORE.heavy>
22

>  <SCORE.norm>
-0.40815

>  <RMSD>
6.275

$$$$
lig.pdb
 OpenBabel11021811523D
libRbt.so/2013.1/901 2013/11/27
 22 23  0  0  0  0  0  0  0  0999 V2000
   16.7907   -7.6097   27.4399 C   0  0  1  0  0  0  0  0  0  0  0  0
   16.2287   -9.2323   25.6234 C   0  0  1  0  0  0  0  0  0  0  0  0
   17.4845  -10.2706   25.8084 C   0  0  1  0  0  0  0  0  0  0  0  0
   17.0282  -11.6947   25.2093 C   0  0  2  0  0  0  0  0  0  0  0  0
   17.0167   -6.0719   27.7979 C   0  0  1  0  0  0  0  0  0  0  0  0
   18.3819   -5.5578   27.1952 C   0  0  2  0  0  0  0  0  0  0  0  0
   19.5773   -6.4048   27.8557 C   0  0  1  0  0  0  0  0  0  0  0  0
   19.4358   -7.9701   27.4624 C   0  0  1  0  0  0  0  0  0  0  0  0
   20.5597   -8.8674   28.0507 C   0  0  0  0  0  0  0  0  0  0  0  0
   15.7889  -12.2162   26.0893 C   0  0  1  0  0  0  0  0  0  0  0  0
   14.5821  -11.1653   25.8951 C   0  0  0  0  0  0  0  0  0  0  0  0
   15.0012   -9.7281   26.4249 C   0  0  2  0  0  0  0  0  0  0  0  0
   20.8886   -5.9717   27.3613 F   0  0  0  0  0  0  0  0  0  0  0  0
   15.7948   -5.3311   27.2341 N   0  0  0  0  0  0  0  0  0  0  0  0
   21.8722   -8.4758   27.6874 N   0  0  0  0  0  0  0  0  0  0  0  0
   15.3039  -13.5362   25.5756 N   0  0  0  0  0  0  0  0  0  0  0  0
   13.9221   -8.7624   26.2400 N   0  0  0  0  0  0  0  0  0  0  0  0
   16.5064   -7.9511   26.1418 O   0  0  0  0  0  0  0  0  0  0  0  0
   18.6374   -9.7522   25.0093 O   0  0  0  0  0  0  0  0  0  0  0  0
   18.0852  -12.5802   25.3637 O   0  0  0  0  0  0  0  0  0  0  0  0
   18.4990   -4.4253   27.4936 O   0  0  0  0  0  0  0  0  0  0  0  0
   18.0143   -8.4338   27.9554 O   0  0  0  0  0  0  0  0  0  0  0  0
  1  5  1  0  0  0  0
  1 18  1  6  0  0  0
  2 18  1  1  0  0  0
  2  3  1  0  0  0  0
  2 12  1  0  0  0  0
  3 19  1  6  0  0  0
  3  4  1  0  0  0  0
  4 20  1  1  0  0  0
  4 10  1  0  0  0  0
  5  6  1  0  0  0  0
  5 14  1  6  0  0  0
  6 21  1  1  0  0  0
  7 13  1  6  0  0  0
  7  6  1  0  0  0  0
  8  9  1  1  0  0  0
  8  7  1  0  0  0  0
 10 16  1  6  0  0  0
 11 10  1  0  0  0  0
 12 17  1  6  0  0  0
 12 11  1  0  0  0  0
 15  9  1  0  0  0  0
 22  8  1  0  0  0  0
 22  1  1  0  0  0  0
M  END
>  <CHROM.1>
-177.62629828,-61.87219354,-57.14498709,17.59327938,-8.68241085,26.67938130
1.03362867,-0.12835597,0.25902479

>  <Name>
lig.pdb

>  <RI>
0

>  <Rbt.Current_Directory>
/home/itssahil/PROJECTS/Mol_Feturizer/New_Systems/rnas/5bxk

>  <Rbt.Executable>
rbdock ($Id: //depot/dev/client3/rdock/2013.1/src/exe/rbdock.cxx#4 $)

>  <Rbt.Library>
libRbt.so (2013.1, Build901 2013/11/27)

>  <Rbt.Parameter_File>
/export/apps/rDock/src/rDock_2013.1_src/data/scripts/dock_solv.prm

>  <Rbt.Receptor>
prm/pocket_docking_3.prm

>  <SCORE>
-7.59314

>  <SCORE.INTER>
-4.57999

>  <SCORE.INTER.CONST>
1

>  <SCORE.INTER.POLAR>
0

>  <SCORE.INTER.ROT>
3

>  <SCORE.INTER.SOLV>
19.59

>  <SCORE.INTER.VDW>
-15.1833

>  <SCORE.INTER.norm>
-0.208182

>  <SCORE.INTRA>
-3.01315

>  <SCORE.INTRA.DIHEDRAL>
-6.97098

>  <SCORE.INTRA.DIHEDRAL.0>
7.18044

>  <SCORE.INTRA.POLAR>
0

>  <SCORE.INTRA.POLAR.0>
0

>  <SCORE.INTRA.REPUL>
0

>  <SCORE.INTRA.REPUL.0>
0

>  <SCORE.INTRA.SOLV>
0.690856

>  <SCORE.INTRA.SOLV.lig_0>
-72.0615

>  <SCORE.INTRA.VDW>
0.126916

>  <SCORE.INTRA.VDW.0>
-1.54792

>  <SCORE.INTRA.norm>
-0.136961

>  <SCORE.RESTR>
0

>  <SCORE.RESTR.CAVITY>
0

>  <SCORE.RESTR.norm>
0

>  <SCORE.SYSTEM>
0

>  <SCORE.SYSTEM.CONST>
0

>  <SCORE.SYSTEM.DIHEDRAL>
0

>  <SCORE.SYSTEM.SOLV>
0

>  <SCORE.SYSTEM.norm>
0

>  <SCORE.heavy>
22

>  <SCORE.norm>
-0.345143

>  <RMSD>
6.277

$$$$
lig.pdb
 OpenBabel11021811523D
libRbt.so/2013.1/901 2013/11/27
 22 23  0  0  0  0  0  0  0  0999 V2000
   16.5661   -7.5257   27.3048 C   0  0  1  0  0  0  0  0  0  0  0  0
   15.8173   -9.2110   25.6175 C   0  0  1  0  0  0  0  0  0  0  0  0
   17.1215  -10.2051   25.6265 C   0  0  1  0  0  0  0  0  0  0  0  0
   16.6280  -11.6564   25.1312 C   0  0  2  0  0  0  0  0  0  0  0  0
   16.8951   -5.9861   27.5608 C   0  0  1  0  0  0  0  0  0  0  0  0
   18.2065   -5.5644   26.7904 C   0  0  2  0  0  0  0  0  0  0  0  0
   19.4301   -6.4374   27.3590 C   0  0  1  0  0  0  0  0  0  0  0  0
   19.1800   -8.0099   27.0602 C   0  0  1  0  0  0  0  0  0  0  0  0
   20.3225   -8.9329   27.5674 C   0  0  0  0  0  0  0  0  0  0  0  0
   15.5566  -12.1953   26.2008 C   0  0  1  0  0  0  0  0  0  0  0  0
   14.2990  -11.1873   26.1749 C   0  0  0  0  0  0  0  0  0  0  0  0
   14.7446   -9.7256   26.6072 C   0  0  2  0  0  0  0  0  0  0  0  0
   20.6965   -6.0893   26.7058 F   0  0  0  0  0  0  0  0  0  0  0  0
   15.6513   -5.2136   27.0962 N   0  0  0  0  0  0  0  0  0  0  0  0
   20.6044   -8.8099   28.9507 N   0  0  0  0  0  0  0  0  0  0  0  0
   15.0443  -13.5415   25.7924 N   0  0  0  0  0  0  0  0  0  0  0  0
   13.6174   -8.7985   26.5723 N   0  0  0  0  0  0  0  0  0  0  0  0
   16.1269   -7.9099   26.0631 O   0  0  0  0  0  0  0  0  0  0  0  0
   18.1201   -9.6703   24.6502 O   0  0  0  0  0  0  0  0  0  0  0  0
   17.7260  -12.5048   25.1378 O   0  0  0  0  0  0  0  0  0  0  0  0
   18.4036   -4.4267   27.0187 O   0  0  0  0  0  0  0  0  0  0  0  0
   17.8028   -8.3835   27.7253 O   0  0  0  0  0  0  0  0  0  0  0  0
  1  5  1  0  0  0  0
  1 18  1  6  0  0  0
  2 18  1  1  0  0  0
  2  3  1  0  0  0  0
  2 12  1  0  0  0  0
  3 19  1  6  0  0  0
  3  4  1  0  0  0  0
  4 20  1  1  0  0  0
  4 10  1  0  0  0  0
  5  6  1  0  0  0  0
  5 14  1  6  0  0  0
  6 21  1  1  0  0  0
  7 13  1  6  0  0  0
  7  6  1  0  0  0  0
  8  9  1  1  0  0  0
  8  7  1  0  0  0  0
 10 16  1  6  0  0  0
 11 10  1  0  0  0  0
 12 17  1  6  0  0  0
 12 11  1  0  0  0  0
 15  9  1  0  0  0  0
 22  8  1  0  0  0  0
 22  1  1  0  0  0  0
M  END
>  <CHROM.1>
178.15207212,-63.47065852,56.37733409,17.28260291,-8.68241000,26.56698992
1.03928590,-0.11150062,0.20252969

>  <Name>
lig.pdb

>  <RI>
0

>  <Rbt.Current_Directory>
/home/itssahil/PROJECTS/Mol_Feturizer/New_Systems/rnas/5bxk

>  <Rbt.Executable>
rbdock ($Id: //depot/dev/client3/rdock/2013.1/src/exe/rbdock.cxx#4 $)

>  <Rbt.Library>
libRbt.so (2013.1, Build901 2013/11/27)

>  <Rbt.Parameter_File>
/export/apps/rDock/src/rDock_2013.1_src/data/scripts/dock_solv.prm

>  <Rbt.Receptor>
prm/pocket_docking_4.prm

>  <SCORE>
-8.86802

>  <SCORE.INTER>
-5.71439

>  <SCORE.INTER.CONST>
1

>  <SCORE.INTER.POLAR>
0

>  <SCORE.INTER.ROT>
3

>  <SCORE.INTER.SOLV>
16.0925

>  <SCORE.INTER.VDW>
-14.7738

>  <SCORE.INTER.norm>
-0.259745

>  <SCORE.INTRA>
-3.15363

>  <SCORE.INTRA.DIHEDRAL>
-6.92294

>  <SCORE.INTRA.DIHEDRAL.0>
7.18044

>  <SCORE.INTRA.POLAR>
0

>  <SCORE.INTRA.POLAR.0>
0

>  <SCORE.INTRA.REPUL>
0

>  <SCORE.INTRA.REPUL.0>
0

>  <SCORE.INTRA.SOLV>
0.569199

>  <SCORE.INTRA.SOLV.lig_0>
-72.0615

>  <SCORE.INTRA.VDW>
0.0232439

>  <SCORE.INTRA.VDW.0>
-1.54792

>  <SCORE.INTRA.norm>
-0.143347

>  <SCORE.RESTR>
0

>  <SCORE.RESTR.CAVITY>
0

>  <SCORE.RESTR.norm>
0

>  <SCORE.SYSTEM>
0

>  <SCORE.SYSTEM.CONST>
0

>  <SCORE.SYSTEM.DIHEDRAL>
0

>  <SCORE.SYSTEM.SOLV>
0

>  <SCORE.SYSTEM.norm>
0

>  <SCORE.heavy>
22

>  <SCORE.norm>
-0.403092

>  <RMSD>
6.279

$$$$
lig.pdb
 OpenBabel11021811523D
libRbt.so/2013.1/901 2013/11/27
 22 23  0  0  0  0  0  0  0  0999 V2000
   16.5693   -7.5390   27.2656 C   0  0  1  0  0  0  0  0  0  0  0  0
   15.8298   -9.2308   25.5805 C   0  0  1  0  0  0  0  0  0  0  0  0
   17.1231  -10.2385   25.6150 C   0  0  1  0  0  0  0  0  0  0  0  0
   16.6209  -11.6885   25.1249 C   0  0  2  0  0  0  0  0  0  0  0  0
   16.9196   -6.0025   27.5114 C   0  0  1  0  0  0  0  0  0  0  0  0
   18.2525   -5.6116   26.7619 C   0  0  2  0  0  0  0  0  0  0  0  0
   19.4499   -6.4988   27.3632 C   0  0  1  0  0  0  0  0  0  0  0  0
   19.1786   -8.0701   27.0765 C   0  0  1  0  0  0  0  0  0  0  0  0
   20.2953   -9.0066   27.6153 C   0  0  0  0  0  0  0  0  0  0  0  0
   15.5297  -12.2073   26.1841 C   0  0  1  0  0  0  0  0  0  0  0  0
   14.2833  -11.1863   26.1332 C   0  0  0  0  0  0  0  0  0  0  0  0
   14.7386   -9.7259   26.5597 C   0  0  2  0  0  0  0  0  0  0  0  0
   20.7343   -6.1794   26.7308 F   0  0  0  0  0  0  0  0  0  0  0  0
   15.6983   -5.2142   27.0147 N   0  0  0  0  0  0  0  0  0  0  0  0
   20.5123   -8.9156   29.0128 N   0  0  0  0  0  0  0  0  0  0  0  0
   15.0085  -13.5513   25.7797 N   0  0  0  0  0  0  0  0  0  0  0  0
   13.6219   -8.7874   26.5023 N   0  0  0  0  0  0  0  0  0  0  0  0
   16.1472   -7.9294   26.0198 O   0  0  0  0  0  0  0  0  0  0  0  0
   18.1403   -9.7221   24.6481 O   0  0  0  0  0  0  0  0  0  0  0  0
   17.7097  -12.5483   25.1530 O   0  0  0  0  0  0  0  0  0  0  0  0
   18.4647   -4.4750   26.9818 O   0  0  0  0  0  0  0  0  0  0  0  0
   17.7828   -8.4129   27.7189 O   0  0  0  0  0  0  0  0  0  0  0  0
  1  5  1  0  0  0  0
  1 18  1  6  0  0  0
  2 18  1  1  0  0  0
  2  3  1  0  0  0  0
  2 12  1  0  0  0  0
  3 19  1  6  0  0  0
  3  4  1  0  0  0  0
  4 20  1  1  0  0  0
  4 10  1  0  0  0  0
  5  6  1  0  0  0  0
  5 14  1  6  0  0  0
  6 21  1  1  0  0  0
  7 13  1  6  0  0  0
  7  6  1  0  0  0  0
  8  9  1  1  0  0  0
  8  7  1  0  0  0  0
 10 16  1  6  0  0  0
 11 10  1  0  0  0  0
 12 17  1  6  0  0  0
 12 11  1  0  0  0  0
 15  9  1  0  0  0  0
 22  8  1  0  0  0  0
 22  1  1  0  0  0  0
M  END
>  <CHROM.1>
177.83462894,-63.72947886,59.02168726,17.28565732,-8.71796972,26.55151320
1.03219884,-0.13244976,0.19192431

>  <Name>
lig.pdb

>  <RI>
0

>  <Rbt.Current_Directory>
/home/itssahil/PROJECTS/Mol_Feturizer/New_Systems/rnas/5bxk

>  <Rbt.Executable>
rbdock ($Id: //depot/dev/client3/rdock/2013.1/src/exe/rbdock.cxx#4 $)

>  <Rbt.Library>
libRbt.so (2013.1, Build901 2013/11/27)

>  <Rbt.Parameter_File>
/export/apps/rDock/src/rDock_2013.1_src/data/scripts/dock_solv.prm

>  <Rbt.Receptor>
prm/pocket_docking_6.prm

>  <SCORE>
-8.84532

>  <SCORE.INTER>
-5.65791

>  <SCORE.INTER.CONST>
1

>  <SCORE.INTER.POLAR>
0

>  <SCORE.INTER.ROT>
3

>  <SCORE.INTER.SOLV>
16.5672

>  <SCORE.INTER.VDW>
-14.8943

>  <SCORE.INTER.norm>
-0.257178

>  <SCORE.INTRA>
-3.18741

>  <SCORE.INTRA.DIHEDRAL>
-6.95109

>  <SCORE.INTRA.DIHEDRAL.0>
7.18044

>  <SCORE.INTRA.POLAR>
0

>  <SCORE.INTRA.POLAR.0>
0

>  <SCORE.INTRA.REPUL>
0

>  <SCORE.INTRA.REPUL.0>
0

>  <SCORE.INTRA.SOLV>
0.53306

>  <SCORE.INTRA.SOLV.lig_0>
-72.0615

>  <SCORE.INTRA.VDW>
0.0216065

>  <SCORE.INTRA.VDW.0>
-1.54792

>  <SCORE.INTRA.norm>
-0.144882

>  <SCORE.RESTR>
0

>  <SCORE.RESTR.CAVITY>
0

>  <SCORE.RESTR.norm>
0

>  <SCORE.SYSTEM>
0

>  <SCORE.SYSTEM.CONST>
0

>  <SCORE.SYSTEM.DIHEDRAL>
0

>  <SCORE.SYSTEM.SOLV>
0

>  <SCORE.SYSTEM.norm>
0

>  <SCORE.heavy>
22

>  <SCORE.norm>
-0.40206

>  <RMSD>
6.282

$$$$
lig.pdb
 OpenBabel11021811523D
libRbt.so/2013.1/901 2013/11/27
 22 23  0  0  0  0  0  0  0  0999 V2000
   16.5097   -7.4014   27.2667 C   0  0  1  0  0  0  0  0  0  0  0  0
   15.7523   -9.1279   25.6254 C   0  0  1  0  0  0  0  0  0  0  0  0
   17.0589  -10.1189   25.6236 C   0  0  1  0  0  0  0  0  0  0  0  0
   16.5572  -11.5815   25.1716 C   0  0  2  0  0  0  0  0  0  0  0  0
   16.8426   -5.8564   27.4823 C   0  0  1  0  0  0  0  0  0  0  0  0
   18.1550   -5.4584   26.7010 C   0  0  2  0  0  0  0  0  0  0  0  0
   19.3764   -6.3192   27.2923 C   0  0  1  0  0  0  0  0  0  0  0  0
   19.1223   -7.8985   27.0348 C   0  0  1  0  0  0  0  0  0  0  0  0
   20.2626   -8.8107   27.5659 C   0  0  0  0  0  0  0  0  0  0  0  0
   15.5137  -12.0995   26.2783 C   0  0  1  0  0  0  0  0  0  0  0  0
   14.2532  -11.0949   26.2617 C   0  0  0  0  0  0  0  0  0  0  0  0
   14.7055   -9.6234   26.6518 C   0  0  2  0  0  0  0  0  0  0  0  0
   20.6436   -5.9916   26.6302 F   0  0  0  0  0  0  0  0  0  0  0  0
   15.6006   -5.0933   26.9977 N   0  0  0  0  0  0  0  0  0  0  0  0
   20.4817   -8.7210   28.9631 N   0  0  0  0  0  0  0  0  0  0  0  0
   14.9949  -13.4552   25.9113 N   0  0  0  0  0  0  0  0  0  0  0  0
   13.5754   -8.6996   26.6248 N   0  0  0  0  0  0  0  0  0  0  0  0
   16.0694   -7.8169   26.0355 O   0  0  0  0  0  0  0  0  0  0  0  0
   18.0320   -9.6030   24.6121 O   0  0  0  0  0  0  0  0  0  0  0  0
   17.6572  -12.4272   25.1694 O   0  0  0  0  0  0  0  0  0  0  0  0
   18.3550   -4.3156   26.8995 O   0  0  0  0  0  0  0  0  0  0  0  0
   17.7442   -8.2510   27.7095 O   0  0  0  0  0  0  0  0  0  0  0  0
  1  5  1  0  0  0  0
  1 18  1  6  0  0  0
  2 18  1  1  0  0  0
  2  3  1  0  0  0  0
  2 12  1  0  0  0  0
  3 19  1  6  0  0  0
  3  4  1  0  0  0  0
  4 20  1  1  0  0  0
  4 10  1  0  0  0  0
  5  6  1  0  0  0  0
  5 14  1  6  0  0  0
  6 21  1  1  0  0  0
  7 13  1  6  0  0  0
  7  6  1  0  0  0  0
  8  9  1  1  0  0  0
  8  7  1  0  0  0  0
 10 16  1  6  0  0  0
 11 10  1  0  0  0  0
 12 17  1  6  0  0  0
 12 11  1  0  0  0  0
 15  9  1  0  0  0  0
 22  8  1  0  0  0  0
 22  1  1  0  0  0  0
M  END
>  <CHROM.1>
178.37877691,-65.05127971,60.60079770,17.22345726,-8.58176853,26.55598401
1.04344973,-0.10646288,0.18057013

>  <Name>
lig.pdb

>  <RI>
0

>  <Rbt.Current_Directory>
/home/itssahil/PROJECTS/Mol_Feturizer/New_Systems/rnas/5bxk

>  <Rbt.Executable>
rbdock ($Id: //depot/dev/client3/rdock/2013.1/src/exe/rbdock.cxx#4 $)

>  <Rbt.Library>
libRbt.so (2013.1, Build901 2013/11/27)

>  <Rbt.Parameter_File>
/export/apps/rDock/src/rDock_2013.1_src/data/scripts/dock_solv.prm

>  <Rbt.Receptor>
prm/pocket_docking_5.prm

>  <SCORE>
-8.77501

>  <SCORE.INTER>
-5.60226

>  <SCORE.INTER.CONST>
1

>  <SCORE.INTER.POLAR>
0

>  <SCORE.INTER.ROT>
3

>  <SCORE.INTER.SOLV>
16.0889

>  <SCORE.INTER.VDW>
-14.6978

>  <SCORE.INTER.norm>
-0.254648

>  <SCORE.INTRA>
-3.17275

>  <SCORE.INTRA.DIHEDRAL>
-6.90593

>  <SCORE.INTRA.DIHEDRAL.0>
7.18044

>  <SCORE.INTRA.POLAR>
0

>  <SCORE.INTRA.POLAR.0>
0

>  <SCORE.INTRA.REPUL>
0

>  <SCORE.INTRA.REPUL.0>
0

>  <SCORE.INTRA.SOLV>
0.531634

>  <SCORE.INTRA.SOLV.lig_0>
-72.0615

>  <SCORE.INTRA.VDW>
0.0143996

>  <SCORE.INTRA.VDW.0>
-1.54792

>  <SCORE.INTRA.norm>
-0.144216

>  <SCORE.RESTR>
0

>  <SCORE.RESTR.CAVITY>
0

>  <SCORE.RESTR.norm>
0

>  <SCORE.SYSTEM>
0

>  <SCORE.SYSTEM.CONST>
0

>  <SCORE.SYSTEM.DIHEDRAL>
0

>  <SCORE.SYSTEM.SOLV>
0

>  <SCORE.SYSTEM.norm>
0

>  <SCORE.heavy>
22

>  <SCORE.norm>
-0.398864

>  <RMSD>
6.283

$$$$
lig.pdb
 OpenBabel11021811523D
libRbt.so/2013.1/901 2013/11/27
 22 23  0  0  0  0  0  0  0  0999 V2000
   16.5085   -7.4523   27.2326 C   0  0  1  0  0  0  0  0  0  0  0  0
   15.8148   -9.1858   25.5705 C   0  0  1  0  0  0  0  0  0  0  0  0
   17.1306  -10.1636   25.6140 C   0  0  1  0  0  0  0  0  0  0  0  0
   16.6594  -11.6313   25.1463 C   0  0  2  0  0  0  0  0  0  0  0  0
   16.8112   -5.9029   27.4597 C   0  0  1  0  0  0  0  0  0  0  0  0
   18.1355   -5.4818   26.7111 C   0  0  2  0  0  0  0  0  0  0  0  0
   19.3560   -6.3246   27.3295 C   0  0  1  0  0  0  0  0  0  0  0  0
   19.1335   -7.9070   27.0623 C   0  0  1  0  0  0  0  0  0  0  0  0
   20.2752   -8.8024   27.6186 C   0  0  0  0  0  0  0  0  0  0  0  0
   15.5840  -12.1594   26.2172 C   0  0  1  0  0  0  0  0  0  0  0  0
   14.3148  -11.1675   26.1569 C   0  0  0  0  0  0  0  0  0  0  0  0
   14.7387   -9.6914   26.5610 C   0  0  2  0  0  0  0  0  0  0  0  0
   20.6333   -5.9750   26.6988 F   0  0  0  0  0  0  0  0  0  0  0  0
   15.5692   -5.1583   26.9471 N   0  0  0  0  0  0  0  0  0  0  0  0
   20.5018   -8.6650   29.0107 N   0  0  0  0  0  0  0  0  0  0  0  0
   15.0918  -13.5204   25.8338 N   0  0  0  0  0  0  0  0  0  0  0  0
   13.6009   -8.7791   26.4949 N   0  0  0  0  0  0  0  0  0  0  0  0
   16.1045   -7.8715   25.9901 O   0  0  0  0  0  0  0  0  0  0  0  0
   18.1324   -9.6383   24.6358 O   0  0  0  0  0  0  0  0  0  0  0  0
   17.7673  -12.4660   25.1822 O   0  0  0  0  0  0  0  0  0  0  0  0
   18.3123   -4.3366   26.9169 O   0  0  0  0  0  0  0  0  0  0  0  0
   17.7455   -8.2833   27.7029 O   0  0  0  0  0  0  0  0  0  0  0  0
  1  5  1  0  0  0  0
  1 18  1  6  0  0  0
  2 18  1  1  0  0  0
  2  3  1  0  0  0  0
  2 12  1  0  0  0  0
  3 19  1  6  0  0  0
  3  4  1  0  0  0  0
  4 20  1  1  0  0  0
  4 10  1  0  0  0  0
  5  6  1  0  0  0  0
  5 14  1  6  0  0  0
  6 21  1  1  0  0  0
  7 13  1  6  0  0  0
  7  6  1  0  0  0  0
  8  9  1  1  0  0  0
  8  7  1  0  0  0  0
 10 16  1  6  0  0  0
 11 10  1  0  0  0  0
 12 17  1  6  0  0  0
 12 11  1  0  0  0  0
 15  9  1  0  0  0  0
 22  8  1  0  0  0  0
 22  1  1  0  0  0  0
M  END
>  <CHROM.1>
178.57281424,-64.49539691,57.71581450,17.25313613,-8.61706302,26.53921518
1.05764273,-0.12940505,0.18305113

>  <Name>
lig.pdb

>  <RI>
0

>  <Rbt.Current_Directory>
/home/itssahil/PROJECTS/Mol_Feturizer/New_Systems/rnas/5bxk

>  <Rbt.Executable>
rbdock ($Id: //depot/dev/client3/rdock/2013.1/src/exe/rbdock.cxx#4 $)

>  <Rbt.Library>
libRbt.so (2013.1, Build901 2013/11/27)

>  <Rbt.Parameter_File>
/export/apps/rDock/src/rDock_2013.1_src/data/scripts/dock_solv.prm

>  <Rbt.Receptor>
prm/pocket_docking_5.prm

>  <SCORE>
-8.82329

>  <SCORE.INTER>
-5.66313

>  <SCORE.INTER.CONST>
1

>  <SCORE.INTER.POLAR>
0

>  <SCORE.INTER.ROT>
3

>  <SCORE.INTER.SOLV>
15.729

>  <SCORE.INTER.VDW>
-14.6184

>  <SCORE.INTER.norm>
-0.257415

>  <SCORE.INTRA>
-3.16016

>  <SCORE.INTRA.DIHEDRAL>
-6.9177

>  <SCORE.INTRA.DIHEDRAL.0>
7.18044

>  <SCORE.INTRA.POLAR>
0

>  <SCORE.INTRA.POLAR.0>
0

>  <SCORE.INTRA.REPUL>
0

>  <SCORE.INTRA.REPUL.0>
0

>  <SCORE.INTRA.SOLV>
0.566811

>  <SCORE.INTRA.SOLV.lig_0>
-72.0615

>  <SCORE.INTRA.VDW>
0.0152896

>  <SCORE.INTRA.VDW.0>
-1.54792

>  <SCORE.INTRA.norm>
-0.143643

>  <SCORE.RESTR>
0

>  <SCORE.RESTR.CAVITY>
0

>  <SCORE.RESTR.norm>
0

>  <SCORE.SYSTEM>
0

>  <SCORE.SYSTEM.CONST>
0

>  <SCORE.SYSTEM.DIHEDRAL>
0

>  <SCORE.SYSTEM.SOLV>
0

>  <SCORE.SYSTEM.norm>
0

>  <SCORE.heavy>
22

>  <SCORE.norm>
-0.401059

>  <RMSD>
6.286

$$$$
lig.pdb
 OpenBabel11021811523D
libRbt.so/2013.1/901 2013/11/27
 22 23  0  0  0  0  0  0  0  0999 V2000
   16.7738   -7.5168   27.0548 C   0  0  1  0  0  0  0  0  0  0  0  0
   16.1367   -9.2321   25.3517 C   0  0  1  0  0  0  0  0  0  0  0  0
   17.3431  -10.3307   25.5157 C   0  0  1  0  0  0  0  0  0  0  0  0
   16.7697  -11.7560   25.0310 C   0  0  2  0  0  0  0  0  0  0  0  0
   17.3464   -6.0444   27.2739 C   0  0  1  0  0  0  0  0  0  0  0  0
   18.8407   -5.9512   26.7740 C   0  0  2  0  0  0  0  0  0  0  0  0
   19.7299   -6.9672   27.6454 C   0  0  1  0  0  0  0  0  0  0  0  0
   19.2347   -8.4908   27.4035 C   0  0  1  0  0  0  0  0  0  0  0  0
   20.0483   -9.5475   28.2010 C   0  0  0  0  0  0  0  0  0  0  0  0
   15.5658  -12.1552   26.0175 C   0  0  1  0  0  0  0  0  0  0  0  0
   14.4084  -11.0474   25.8404 C   0  0  0  0  0  0  0  0  0  0  0  0
   14.9406   -9.6106   26.2577 C   0  0  2  0  0  0  0  0  0  0  0  0
   21.1432   -6.9255   27.2552 F   0  0  0  0  0  0  0  0  0  0  0  0
   16.3973   -5.1119   26.5062 N   0  0  0  0  0  0  0  0  0  0  0  0
   20.0308   -9.3620   29.6058 N   0  0  0  0  0  0  0  0  0  0  0  0
   14.9753  -13.4704   25.6136 N   0  0  0  0  0  0  0  0  0  0  0  0
   13.9063   -8.5946   26.0866 N   0  0  0  0  0  0  0  0  0  0  0  0
   16.5188   -7.9431   25.7758 O   0  0  0  0  0  0  0  0  0  0  0  0
   18.4663   -9.9253   24.6155 O   0  0  0  0  0  0  0  0  0  0  0  0
   17.7845  -12.6924   25.1685 O   0  0  0  0  0  0  0  0  0  0  0  0
   19.2120   -4.8507   26.9644 O   0  0  0  0  0  0  0  0  0  0  0  0
   17.7076   -8.5360   27.7835 O   0  0  0  0  0  0  0  0  0  0  0  0
  1  5  1  0  0  0  0
  1 18  1  6  0  0  0
  2 18  1  1  0  0  0
  2  3  1  0  0  0  0
  2 12  1  0  0  0  0
  3 19  1  6  0  0  0
  3  4  1  0  0  0  0
  4 20  1  1  0  0  0
  4 10  1  0  0  0  0
  5  6  1  0  0  0  0
  5 14  1  6  0  0  0
  6 21  1  1  0  0  0
  7 13  1  6  0  0  0
  7  6  1  0  0  0  0
  8  9  1  1  0  0  0
  8  7  1  0  0  0  0
 10 16  1  6  0  0  0
 11 10  1  0  0  0  0
 12 17  1  6  0  0  0
 12 11  1  0  0  0  0
 15  9  1  0  0  0  0
 22  8  1  0  0  0  0
 22  1  1  0  0  0  0
M  END
>  <CHROM.1>
173.43365600,-69.31205976,58.63041432,17.50235649,-8.87988754,26.53344241
0.95886893,-0.31904509,0.12998066

>  <Name>
lig.pdb

>  <RI>
0

>  <Rbt.Current_Directory>
/home/itssahil/PROJECTS/Mol_Feturizer/New_Systems/rnas/5bxk

>  <Rbt.Executable>
rbdock ($Id: //depot/dev/client3/rdock/2013.1/src/exe/rbdock.cxx#4 $)

>  <Rbt.Library>
libRbt.so (2013.1, Build901 2013/11/27)

>  <Rbt.Parameter_File>
/export/apps/rDock/src/rDock_2013.1_src/data/scripts/dock_solv.prm

>  <Rbt.Receptor>
prm/pocket_docking_2.prm

>  <SCORE>
-6.96521

>  <SCORE.INTER>
-4.28515

>  <SCORE.INTER.CONST>
1

>  <SCORE.INTER.POLAR>
0

>  <SCORE.INTER.ROT>
3

>  <SCORE.INTER.SOLV>
18.5397

>  <SCORE.INTER.VDW>
-14.6367

>  <SCORE.INTER.norm>
-0.19478

>  <SCORE.INTRA>
-2.93974

>  <SCORE.INTRA.DIHEDRAL>
-6.4162

>  <SCORE.INTRA.DIHEDRAL.0>
7.18044

>  <SCORE.INTRA.POLAR>
0

>  <SCORE.INTRA.POLAR.0>
0

>  <SCORE.INTRA.REPUL>
0

>  <SCORE.INTRA.REPUL.0>
0

>  <SCORE.INTRA.SOLV>
0.447499

>  <SCORE.INTRA.SOLV.lig_0>
-72.0615

>  <SCORE.INTRA.VDW>
0.0446138

>  <SCORE.INTRA.VDW.0>
-1.54792

>  <SCORE.INTRA.norm>
-0.133624

>  <SCORE.RESTR>
0.259674

>  <SCORE.RESTR.CAVITY>
0.259674

>  <SCORE.RESTR.norm>
0.0118034

>  <SCORE.SYSTEM>
0

>  <SCORE.SYSTEM.CONST>
0

>  <SCORE.SYSTEM.DIHEDRAL>
0

>  <SCORE.SYSTEM.SOLV>
0

>  <SCORE.SYSTEM.norm>
0

>  <SCORE.heavy>
22

>  <SCORE.norm>
-0.316601

>  <RMSD>
6.287

$$$$
lig.pdb
 OpenBabel11021811523D
libRbt.so/2013.1/901 2013/11/27
 22 23  0  0  0  0  0  0  0  0999 V2000
   16.5818   -7.5710   27.4217 C   0  0  1  0  0  0  0  0  0  0  0  0
   15.8178   -9.2081   25.6941 C   0  0  1  0  0  0  0  0  0  0  0  0
   17.1157  -10.2104   25.6848 C   0  0  1  0  0  0  0  0  0  0  0  0
   16.6156  -11.6460   25.1518 C   0  0  2  0  0  0  0  0  0  0  0  0
   16.8773   -6.0342   27.7298 C   0  0  1  0  0  0  0  0  0  0  0  0
   18.1665   -5.5525   26.9570 C   0  0  2  0  0  0  0  0  0  0  0  0
   19.4191   -6.4152   27.4757 C   0  0  1  0  0  0  0  0  0  0  0  0
   19.2026   -7.9815   27.1226 C   0  0  1  0  0  0  0  0  0  0  0  0
   20.3745   -8.8939   27.5791 C   0  0  0  0  0  0  0  0  0  0  0  0
   15.5357  -12.2041   26.2027 C   0  0  1  0  0  0  0  0  0  0  0  0
   14.2845  -11.1877   26.1956 C   0  0  0  0  0  0  0  0  0  0  0  0
   14.7371   -9.7399   26.6657 C   0  0  2  0  0  0  0  0  0  0  0  0
   20.6668   -6.0123   26.8181 F   0  0  0  0  0  0  0  0  0  0  0  0
   15.6084   -5.2761   27.3116 N   0  0  0  0  0  0  0  0  0  0  0  0
   20.6256   -8.8711   28.9736 N   0  0  0  0  0  0  0  0  0  0  0  0
   15.0169  -13.5365   25.7590 N   0  0  0  0  0  0  0  0  0  0  0  0
   13.6159   -8.8051   26.6483 N   0  0  0  0  0  0  0  0  0  0  0  0
   16.1333   -7.9203   26.1729 O   0  0  0  0  0  0  0  0  0  0  0  0
   18.1224   -9.6582   24.7268 O   0  0  0  0  0  0  0  0  0  0  0  0
   17.7083  -12.5012   25.1428 O   0  0  0  0  0  0  0  0  0  0  0  0
   18.3395   -4.4194   27.2244 O   0  0  0  0  0  0  0  0  0  0  0  0
   17.8449   -8.4129   27.7927 O   0  0  0  0  0  0  0  0  0  0  0  0
  1  5  1  0  0  0  0
  1 18  1  6  0  0  0
  2 18  1  1  0  0  0
  2  3  1  0  0  0  0
  2 12  1  0  0  0  0
  3 19  1  6  0  0  0
  3  4  1  0  0  0  0
  4 20  1  1  0  0  0
  4 10  1  0  0  0  0
  5  6  1  0  0  0  0
  5 14  1  6  0  0  0
  6 21  1  1  0  0  0
  7 13  1  6  0  0  0
  7  6  1  0  0  0  0
  8  9  1  1  0  0  0
  8  7  1  0  0  0  0
 10 16  1  6  0  0  0
 11 10  1  0  0  0  0
 12 17  1  6  0  0  0
 12 11  1  0  0  0  0
 15  9  1  0  0  0  0
 22  8  1  0  0  0  0
 22  1  1  0  0  0  0
M  END
>  <CHROM.1>
179.83045942,-62.75222504,59.72191483,17.27546498,-8.68440466,26.64675700
1.04210197,-0.09933663,0.22970106

>  <Name>
lig.pdb

>  <RI>
0

>  <Rbt.Current_Directory>
/home/itssahil/PROJECTS/Mol_Feturizer/New_Systems/rnas/5bxk

>  <Rbt.Executable>
rbdock ($Id: //depot/dev/client3/rdock/2013.1/src/exe/rbdock.cxx#4 $)

>  <Rbt.Library>
libRbt.so (2013.1, Build901 2013/11/27)

>  <Rbt.Parameter_File>
/export/apps/rDock/src/rDock_2013.1_src/data/scripts/dock_solv.prm

>  <Rbt.Receptor>
prm/pocket_docking_8.prm

>  <SCORE>
-8.79132

>  <SCORE.INTER>
-5.58091

>  <SCORE.INTER.CONST>
1

>  <SCORE.INTER.POLAR>
0

>  <SCORE.INTER.ROT>
3

>  <SCORE.INTER.SOLV>
15.8832

>  <SCORE.INTER.VDW>
-14.615

>  <SCORE.INTER.norm>
-0.253678

>  <SCORE.INTRA>
-3.21041

>  <SCORE.INTRA.DIHEDRAL>
-7.00735

>  <SCORE.INTRA.DIHEDRAL.0>
7.18044

>  <SCORE.INTRA.POLAR>
0

>  <SCORE.INTRA.POLAR.0>
0

>  <SCORE.INTRA.REPUL>
0

>  <SCORE.INTRA.REPUL.0>
0

>  <SCORE.INTRA.SOLV>
0.605572

>  <SCORE.INTRA.SOLV.lig_0>
-72.0615

>  <SCORE.INTRA.VDW>
-0.00952455

>  <SCORE.INTRA.VDW.0>
-1.54792

>  <SCORE.INTRA.norm>
-0.145928

>  <SCORE.RESTR>
0

>  <SCORE.RESTR.CAVITY>
0

>  <SCORE.RESTR.norm>
0

>  <SCORE.SYSTEM>
0

>  <SCORE.SYSTEM.CONST>
0

>  <SCORE.SYSTEM.DIHEDRAL>
0

>  <SCORE.SYSTEM.SOLV>
0

>  <SCORE.SYSTEM.norm>
0

>  <SCORE.heavy>
22

>  <SCORE.norm>
-0.399605

>  <RMSD>
6.287

$$$$
lig.pdb
 OpenBabel11021811523D
libRbt.so/2013.1/901 2013/11/27
 22 23  0  0  0  0  0  0  0  0999 V2000
   16.5644   -7.3979   27.3729 C   0  0  1  0  0  0  0  0  0  0  0  0
   15.8447   -9.0947   25.6843 C   0  0  1  0  0  0  0  0  0  0  0  0
   17.1525  -10.0829   25.7302 C   0  0  1  0  0  0  0  0  0  0  0  0
   16.6770  -11.5394   25.2326 C   0  0  2  0  0  0  0  0  0  0  0  0
   16.8248   -5.8476   27.6429 C   0  0  1  0  0  0  0  0  0  0  0  0
   18.1130   -5.3600   26.8722 C   0  0  2  0  0  0  0  0  0  0  0  0
   19.3767   -6.1824   27.4281 C   0  0  1  0  0  0  0  0  0  0  0  0
   19.1964   -7.7617   27.1148 C   0  0  1  0  0  0  0  0  0  0  0  0
   20.3812   -8.6372   27.6090 C   0  0  0  0  0  0  0  0  0  0  0  0
   15.5830  -12.0764   26.2800 C   0  0  1  0  0  0  0  0  0  0  0  0
   14.3221  -11.0741   26.2181 C   0  0  0  0  0  0  0  0  0  0  0  0
   14.7512   -9.6078   26.6516 C   0  0  2  0  0  0  0  0  0  0  0  0
   20.6237   -5.7715   26.7742 F   0  0  0  0  0  0  0  0  0  0  0  0
   15.5457   -5.1274   27.1901 N   0  0  0  0  0  0  0  0  0  0  0  0
   20.6362   -8.5463   29.0000 N   0  0  0  0  0  0  0  0  0  0  0  0
   15.0862  -13.4273   25.8681 N   0  0  0  0  0  0  0  0  0  0  0  0
   13.6212   -8.6859   26.5844 N   0  0  0  0  0  0  0  0  0  0  0  0
   16.1381   -7.7895   26.1289 O   0  0  0  0  0  0  0  0  0  0  0  0
   18.1716   -9.5497   24.7745 O   0  0  0  0  0  0  0  0  0  0  0  0
   17.7782  -12.3829   25.2704 O   0  0  0  0  0  0  0  0  0  0  0  0
   18.2597   -4.2168   27.1110 O   0  0  0  0  0  0  0  0  0  0  0  0
   17.8399   -8.2032   27.7808 O   0  0  0  0  0  0  0  0  0  0  0  0
  1  5  1  0  0  0  0
  1 18  1  6  0  0  0
  2 18  1  1  0  0  0
  2  3  1  0  0  0  0
  2 12  1  0  0  0  0
  3 19  1  6  0  0  0
  3  4  1  0  0  0  0
  4 20  1  1  0  0  0
  4 10  1  0  0  0  0
  5  6  1  0  0  0  0
  5 14  1  6  0  0  0
  6 21  1  1  0  0  0
  7 13  1  6  0  0  0
  7  6  1  0  0  0  0
  8  9  1  1  0  0  0
  8  7  1  0  0  0  0
 10 16  1  6  0  0  0
 11 10  1  0  0  0  0
 12 17  1  6  0  0  0
 12 11  1  0  0  0  0
 15  9  1  0  0  0  0
 22  8  1  0  0  0  0
 22  1  1  0  0  0  0
M  END
>  <CHROM.1>
-179.62581778,-62.46878605,58.21940390,17.27842959,-8.51550485,26.64051428
1.05724563,-0.10844015,0.20205748

>  <Name>
lig.pdb

>  <RI>
0

>  <Rbt.Current_Directory>
/home/itssahil/PROJECTS/Mol_Feturizer/New_Systems/rnas/5bxk

>  <Rbt.Executable>
rbdock ($Id: //depot/dev/client3/rdock/2013.1/src/exe/rbdock.cxx#4 $)

>  <Rbt.Library>
libRbt.so (2013.1, Build901 2013/11/27)

>  <Rbt.Parameter_File>
/export/apps/rDock/src/rDock_2013.1_src/data/scripts/dock_solv.prm

>  <Rbt.Receptor>
prm/pocket_docking_4.prm

>  <SCORE>
-8.7966

>  <SCORE.INTER>
-5.60451

>  <SCORE.INTER.CONST>
1

>  <SCORE.INTER.POLAR>
0

>  <SCORE.INTER.ROT>
3

>  <SCORE.INTER.SOLV>
15.084

>  <SCORE.INTER.VDW>
-14.3644

>  <SCORE.INTER.norm>
-0.254751

>  <SCORE.INTRA>
-3.19208

>  <SCORE.INTRA.DIHEDRAL>
-7.00323

>  <SCORE.INTRA.DIHEDRAL.0>
7.18044

>  <SCORE.INTRA.POLAR>
0

>  <SCORE.INTRA.POLAR.0>
0

>  <SCORE.INTRA.REPUL>
0

>  <SCORE.INTRA.REPUL.0>
0

>  <SCORE.INTRA.SOLV>
0.647446

>  <SCORE.INTRA.SOLV.lig_0>
-72.0615

>  <SCORE.INTRA.VDW>
-0.0141941

>  <SCORE.INTRA.VDW.0>
-1.54792

>  <SCORE.INTRA.norm>
-0.145095

>  <SCORE.RESTR>
0

>  <SCORE.RESTR.CAVITY>
0

>  <SCORE.RESTR.norm>
0

>  <SCORE.SYSTEM>
0

>  <SCORE.SYSTEM.CONST>
0

>  <SCORE.SYSTEM.DIHEDRAL>
0

>  <SCORE.SYSTEM.SOLV>
0

>  <SCORE.SYSTEM.norm>
0

>  <SCORE.heavy>
22

>  <SCORE.norm>
-0.399845

>  <RMSD>
6.295

$$$$
lig.pdb
 OpenBabel11021811523D
libRbt.so/2013.1/901 2013/11/27
 22 23  0  0  0  0  0  0  0  0999 V2000
   15.4728   -7.7183   26.3020 C   0  0  1  0  0  0  0  0  0  0  0  0
   16.2405  -10.0010   25.6326 C   0  0  1  0  0  0  0  0  0  0  0  0
   15.1321  -11.1173   25.1693 C   0  0  1  0  0  0  0  0  0  0  0  0
   15.7530  -12.5722   25.4739 C   0  0  2  0  0  0  0  0  0  0  0  0
   14.3125   -8.0324   27.3505 C   0  0  1  0  0  0  0  0  0  0  0  0
   12.9091   -8.0687   26.6291 C   0  0  2  0  0  0  0  0  0  0  0  0
   12.6290   -6.6193   25.9942 C   0  0  1  0  0  0  0  0  0  0  0  0
   13.7419   -6.2792   24.8669 C   0  0  1  0  0  0  0  0  0  0  0  0
   13.5429   -4.8957   24.1883 C   0  0  0  0  0  0  0  0  0  0  0  0
   17.0682  -12.7380   24.5657 C   0  0  1  0  0  0  0  0  0  0  0  0
   18.1261  -11.6174   25.0383 C   0  0  0  0  0  0  0  0  0  0  0  0
   17.5390  -10.1602   24.8059 C   0  0  2  0  0  0  0  0  0  0  0  0
   11.3276   -6.5630   25.3199 F   0  0  0  0  0  0  0  0  0  0  0  0
   14.6900   -9.3737   27.9971 N   0  0  0  0  0  0  0  0  0  0  0  0
   14.5391   -4.5609   23.2377 N   0  0  0  0  0  0  0  0  0  0  0  0
   17.7061  -14.0701   24.8105 N   0  0  0  0  0  0  0  0  0  0  0  0
   18.4815   -9.1355   25.2450 N   0  0  0  0  0  0  0  0  0  0  0  0
   15.8132   -8.6806   25.3852 O   0  0  0  0  0  0  0  0  0  0  0  0
   13.9047  -10.9267   26.0021 O   0  0  0  0  0  0  0  0  0  0  0  0
   14.8214  -13.5233   25.0827 O   0  0  0  0  0  0  0  0  0  0  0  0
   12.0940   -8.2973   27.4468 O   0  0  0  0  0  0  0  0  0  0  0  0
   15.1455   -6.3753   25.5733 O   0  0  0  0  0  0  0  0  0  0  0  0
  1  5  1  0  0  0  0
  1 18  1  6  0  0  0
  2 18  1  6  0  0  0
  2  3  1  0  0  0  0
  2 12  1  0  0  0  0
  3 19  1  1  0  0  0
  3  4  1  0  0  0  0
  4 20  1  6  0  0  0
  4 10  1  0  0  0  0
  5  6  1  0  0  0  0
  5 14  1  6  0  0  0
  6 21  1  1  0  0  0
  7 13  1  6  0  0  0
  7  6  1  0  0  0  0
  8  9  1  1  0  0  0
  8  7  1  0  0  0  0
 10 16  1  1  0  0  0
 11 10  1  0  0  0  0
 12 17  1  1  0  0  0
 12 11  1  0  0  0  0
 15  9  1  0  0  0  0
 22  8  1  0  0  0  0
 22  1  1  0  0  0  0
M  END
>  <CHROM.1>
-57.09556056,111.15793542,177.61498883,14.96286939,-9.11719988,25.55398460
-2.14848691,-0.39839127,2.93510127

>  <Name>
lig.pdb

>  <RI>
0

>  <Rbt.Current_Directory>
/home/itssahil/PROJECTS/Mol_Feturizer/New_Systems/rnas/5bxk

>  <Rbt.Executable>
rbdock ($Id: //depot/dev/client3/rdock/2013.1/src/exe/rbdock.cxx#4 $)

>  <Rbt.Library>
libRbt.so (2013.1, Build901 2013/11/27)

>  <Rbt.Parameter_File>
/export/apps/rDock/src/rDock_2013.1_src/data/scripts/dock_solv.prm

>  <Rbt.Receptor>
prm/pocket_docking_6.prm

>  <SCORE>
-8.24985

>  <SCORE.INTER>
-8.93738

>  <SCORE.INTER.CONST>
1

>  <SCORE.INTER.POLAR>
0

>  <SCORE.INTER.ROT>
3

>  <SCORE.INTER.SOLV>
16.7847

>  <SCORE.INTER.VDW>
-17.1531

>  <SCORE.INTER.norm>
-0.406245

>  <SCORE.INTRA>
0.687533

>  <SCORE.INTRA.DIHEDRAL>
-0.164037

>  <SCORE.INTRA.DIHEDRAL.0>
7.18044

>  <SCORE.INTRA.POLAR>
0

>  <SCORE.INTRA.POLAR.0>
0

>  <SCORE.INTRA.REPUL>
0

>  <SCORE.INTRA.REPUL.0>
0

>  <SCORE.INTRA.SOLV>
1.90725

>  <SCORE.INTRA.SOLV.lig_0>
-72.0615

>  <SCORE.INTRA.VDW>
-0.184072

>  <SCORE.INTRA.VDW.0>
-1.54792

>  <SCORE.INTRA.norm>
0.0312515

>  <SCORE.RESTR>
0

>  <SCORE.RESTR.CAVITY>
0

>  <SCORE.RESTR.norm>
0

>  <SCORE.SYSTEM>
0

>  <SCORE.SYSTEM.CONST>
0

>  <SCORE.SYSTEM.DIHEDRAL>
0

>  <SCORE.SYSTEM.SOLV>
0

>  <SCORE.SYSTEM.norm>
0

>  <SCORE.heavy>
22

>  <SCORE.norm>
-0.374993

>  <RMSD>
6.302

$$$$
lig.pdb
 OpenBabel11021811523D
libRbt.so/2013.1/901 2013/11/27
 22 23  0  0  0  0  0  0  0  0999 V2000
   15.7305   -9.1170   26.5737 C   0  0  1  0  0  0  0  0  0  0  0  0
   16.5851  -11.1972   25.4823 C   0  0  1  0  0  0  0  0  0  0  0  0
   15.9775  -12.3883   24.5330 C   0  0  1  0  0  0  0  0  0  0  0  0
   17.1057  -13.5314   24.4081 C   0  0  2  0  0  0  0  0  0  0  0  0
   14.5955   -9.0590   27.6928 C   0  0  1  0  0  0  0  0  0  0  0  0
   13.2150   -8.6293   27.0596 C   0  0  2  0  0  0  0  0  0  0  0  0
   13.3797   -7.1561   26.4392 C   0  0  1  0  0  0  0  0  0  0  0  0
   14.4737   -7.1729   25.2443 C   0  0  1  0  0  0  0  0  0  0  0  0
   14.6913   -5.7874   24.5754 C   0  0  0  0  0  0  0  0  0  0  0  0
   18.3774  -12.8793   23.6735 C   0  0  1  0  0  0  0  0  0  0  0  0
   18.9368  -11.7057   24.6265 C   0  0  0  0  0  0  0  0  0  0  0  0
   17.8396  -10.5747   24.8238 C   0  0  2  0  0  0  0  0  0  0  0  0
   12.1282   -6.6723   25.8465 F   0  0  0  0  0  0  0  0  0  0  0  0
   14.5583  -10.4614   28.3186 N   0  0  0  0  0  0  0  0  0  0  0  0
   13.5322   -5.2401   23.9712 N   0  0  0  0  0  0  0  0  0  0  0  0
   19.4744  -13.8889   23.5362 N   0  0  0  0  0  0  0  0  0  0  0  0
   18.3280   -9.5129   25.6987 N   0  0  0  0  0  0  0  0  0  0  0  0
   15.6875  -10.1217   25.6402 O   0  0  0  0  0  0  0  0  0  0  0  0
   14.7771  -12.9607   25.2168 O   0  0  0  0  0  0  0  0  0  0  0  0
   16.6000  -14.5430   23.6041 O   0  0  0  0  0  0  0  0  0  0  0  0
   12.4199   -8.5975   27.9269 O   0  0  0  0  0  0  0  0  0  0  0  0
   15.8109   -7.7277   25.8628 O   0  0  0  0  0  0  0  0  0  0  0  0
  1  5  1  0  0  0  0
  1 18  1  6  0  0  0
  2 18  1  6  0  0  0
  2  3  1  0  0  0  0
  2 12  1  0  0  0  0
  3 19  1  1  0  0  0
  3  4  1  0  0  0  0
  4 20  1  6  0  0  0
  4 10  1  0  0  0  0
  5  6  1  0  0  0  0
  5 14  1  6  0  0  0
  6 21  1  1  0  0  0
  7 13  1  6  0  0  0
  7  6  1  0  0  0  0
  8  9  1  1  0  0  0
  8  7  1  0  0  0  0
 10 16  1  1  0  0  0
 11 10  1  0  0  0  0
 12 17  1  1  0  0  0
 12 11  1  0  0  0  0
 15  9  1  0  0  0  0
 22  8  1  0  0  0  0
 22  1  1  0  0  0  0
M  END
>  <CHROM.1>
-112.39371842,164.44769442,-60.65758259,15.56939638,-9.91850361,25.49625346
2.32542339,0.60523564,-0.19492084

>  <Name>
lig.pdb

>  <RI>
0

>  <Rbt.Current_Directory>
/home/itssahil/PROJECTS/Mol_Feturizer/New_Systems/rnas/5bxk

>  <Rbt.Executable>
rbdock ($Id: //depot/dev/client3/rdock/2013.1/src/exe/rbdock.cxx#4 $)

>  <Rbt.Library>
libRbt.so (2013.1, Build901 2013/11/27)

>  <Rbt.Parameter_File>
/export/apps/rDock/src/rDock_2013.1_src/data/scripts/dock_solv.prm

>  <Rbt.Receptor>
prm/pocket_docking_5.prm

>  <SCORE>
-5.60672

>  <SCORE.INTER>
-7.26953

>  <SCORE.INTER.CONST>
1

>  <SCORE.INTER.POLAR>
0

>  <SCORE.INTER.ROT>
3

>  <SCORE.INTER.SOLV>
16.8428

>  <SCORE.INTER.VDW>
-16.0606

>  <SCORE.INTER.norm>
-0.330433

>  <SCORE.INTRA>
1.66281

>  <SCORE.INTRA.DIHEDRAL>
0.745474

>  <SCORE.INTRA.DIHEDRAL.0>
7.18044

>  <SCORE.INTRA.POLAR>
0

>  <SCORE.INTRA.POLAR.0>
0

>  <SCORE.INTRA.REPUL>
0

>  <SCORE.INTRA.REPUL.0>
0

>  <SCORE.INTRA.SOLV>
1.30857

>  <SCORE.INTRA.SOLV.lig_0>
-72.0615

>  <SCORE.INTRA.VDW>
0.635788

>  <SCORE.INTRA.VDW.0>
-1.54792

>  <SCORE.INTRA.norm>
0.0755822

>  <SCORE.RESTR>
0

>  <SCORE.RESTR.CAVITY>
0

>  <SCORE.RESTR.norm>
0

>  <SCORE.SYSTEM>
0

>  <SCORE.SYSTEM.CONST>
0

>  <SCORE.SYSTEM.DIHEDRAL>
0

>  <SCORE.SYSTEM.SOLV>
0

>  <SCORE.SYSTEM.norm>
0

>  <SCORE.heavy>
22

>  <SCORE.norm>
-0.254851

>  <RMSD>
6.324

$$$$
lig.pdb
 OpenBabel11021811523D
libRbt.so/2013.1/901 2013/11/27
 22 23  0  0  0  0  0  0  0  0999 V2000
   13.7814   -9.5232   27.2540 C   0  0  1  0  0  0  0  0  0  0  0  0
   15.8447  -10.2767   26.0609 C   0  0  1  0  0  0  0  0  0  0  0  0
   15.2113  -11.6280   25.3811 C   0  0  1  0  0  0  0  0  0  0  0  0
   16.4390  -12.5947   24.9897 C   0  0  2  0  0  0  0  0  0  0  0  0
   12.9079   -8.2562   27.6732 C   0  0  1  0  0  0  0  0  0  0  0  0
   13.7173   -7.3276   28.6600 C   0  0  2  0  0  0  0  0  0  0  0  0
   14.0473   -8.1680   29.9893 C   0  0  1  0  0  0  0  0  0  0  0  0
   14.9954   -9.4316   29.6298 C   0  0  1  0  0  0  0  0  0  0  0  0
   15.3765  -10.2988   30.8615 C   0  0  0  0  0  0  0  0  0  0  0  0
   17.3283  -11.8289   23.8921 C   0  0  1  0  0  0  0  0  0  0  0  0
   17.9201  -10.5018   24.5900 C   0  0  0  0  0  0  0  0  0  0  0  0
   16.7438   -9.5356   25.0424 C   0  0  2  0  0  0  0  0  0  0  0  0
   14.7839   -7.3654   30.9716 F   0  0  0  0  0  0  0  0  0  0  0  0
   12.5366   -7.5551   26.3578 N   0  0  0  0  0  0  0  0  0  0  0  0
   16.1352   -9.6174   31.8454 N   0  0  0  0  0  0  0  0  0  0  0  0
   18.5003  -12.6701   23.4918 N   0  0  0  0  0  0  0  0  0  0  0  0
   17.2660   -8.3365   25.6910 N   0  0  0  0  0  0  0  0  0  0  0  0
   14.8558   -9.3388   26.4208 O   0  0  0  0  0  0  0  0  0  0  0  0
   14.3618  -12.3092   26.4061 O   0  0  0  0  0  0  0  0  0  0  0  0
   15.9114  -13.7405   24.4116 O   0  0  0  0  0  0  0  0  0  0  0  0
   13.0262   -6.4167   28.9395 O   0  0  0  0  0  0  0  0  0  0  0  0
   14.2289  -10.2787   28.5466 O   0  0  0  0  0  0  0  0  0  0  0  0
  1  5  1  0  0  0  0
  1 18  1  1  0  0  0
  2 18  1  6  0  0  0
  2  3  1  0  0  0  0
  2 12  1  0  0  0  0
  3 19  1  1  0  0  0
  3  4  1  0  0  0  0
  4 20  1  6  0  0  0
  4 10  1  0  0  0  0
  5  6  1  0  0  0  0
  5 14  1  6  0  0  0
  6 21  1  1  0  0  0
  7 13  1  1  0  0  0
  7  6  1  0  0  0  0
  8  9  1  1  0  0  0
  8  7  1  0  0  0  0
 10 16  1  1  0  0  0
 11 10  1  0  0  0  0
 12 17  1  1  0  0  0
 12 11  1  0  0  0  0
 15  9  1  0  0  0  0
 22  8  1  0  0  0  0
 22  1  1  0  0  0  0
M  END
>  <CHROM.1>
171.57616754,56.96910761,-62.69490424,15.24157932,-9.84168791,27.20500142
2.28050874,-0.95110445,1.54173695

>  <Name>
lig.pdb

>  <RI>
0

>  <Rbt.Current_Directory>
/home/itssahil/PROJECTS/Mol_Feturizer/New_Systems/rnas/5bxk

>  <Rbt.Executable>
rbdock ($Id: //depot/dev/client3/rdock/2013.1/src/exe/rbdock.cxx#4 $)

>  <Rbt.Library>
libRbt.so (2013.1, Build901 2013/11/27)

>  <Rbt.Parameter_File>
/export/apps/rDock/src/rDock_2013.1_src/data/scripts/dock_solv.prm

>  <Rbt.Receptor>
prm/pocket_docking_8.prm

>  <SCORE>
-11.9055

>  <SCORE.INTER>
-8.27114

>  <SCORE.INTER.CONST>
1

>  <SCORE.INTER.POLAR>
0

>  <SCORE.INTER.ROT>
3

>  <SCORE.INTER.SOLV>
16.4798

>  <SCORE.INTER.VDW>
-16.6073

>  <SCORE.INTER.norm>
-0.375961

>  <SCORE.INTRA>
-3.63431

>  <SCORE.INTRA.DIHEDRAL>
-6.64243

>  <SCORE.INTRA.DIHEDRAL.0>
7.18044

>  <SCORE.INTRA.POLAR>
0

>  <SCORE.INTRA.POLAR.0>
0

>  <SCORE.INTRA.REPUL>
0

>  <SCORE.INTRA.REPUL.0>
0

>  <SCORE.INTRA.SOLV>
-0.872789

>  <SCORE.INTRA.SOLV.lig_0>
-72.0615

>  <SCORE.INTRA.VDW>
0.123297

>  <SCORE.INTRA.VDW.0>
-1.54792

>  <SCORE.INTRA.norm>
-0.165196

>  <SCORE.RESTR>
0

>  <SCORE.RESTR.CAVITY>
0

>  <SCORE.RESTR.norm>
0

>  <SCORE.SYSTEM>
0

>  <SCORE.SYSTEM.CONST>
0

>  <SCORE.SYSTEM.DIHEDRAL>
0

>  <SCORE.SYSTEM.SOLV>
0

>  <SCORE.SYSTEM.norm>
0

>  <SCORE.heavy>
22

>  <SCORE.norm>
-0.541157

>  <RMSD>
6.417

$$$$
lig.pdb
 OpenBabel11021811523D
libRbt.so/2013.1/901 2013/11/27
 22 23  0  0  0  0  0  0  0  0999 V2000
   13.8051   -9.5989   27.3116 C   0  0  1  0  0  0  0  0  0  0  0  0
   15.8665  -10.3320   26.1026 C   0  0  1  0  0  0  0  0  0  0  0  0
   15.2246  -11.6702   25.4052 C   0  0  1  0  0  0  0  0  0  0  0  0
   16.4470  -12.6329   24.9877 C   0  0  2  0  0  0  0  0  0  0  0  0
   12.9135   -8.3442   27.7297 C   0  0  1  0  0  0  0  0  0  0  0  0
   13.7049   -7.4095   28.7253 C   0  0  2  0  0  0  0  0  0  0  0  0
   14.0364   -8.2509   30.0536 C   0  0  1  0  0  0  0  0  0  0  0  0
   15.0022   -9.5015   29.6957 C   0  0  1  0  0  0  0  0  0  0  0  0
   15.3856  -10.3687   30.9266 C   0  0  0  0  0  0  0  0  0  0  0  0
   17.3293  -11.8505   23.8961 C   0  0  1  0  0  0  0  0  0  0  0  0
   17.9296  -10.5367   24.6116 C   0  0  0  0  0  0  0  0  0  0  0  0
   16.7592   -9.5758   25.0896 C   0  0  2  0  0  0  0  0  0  0  0  0
   14.7567   -7.4432   31.0437 F   0  0  0  0  0  0  0  0  0  0  0  0
   12.5423   -7.6426   26.4144 N   0  0  0  0  0  0  0  0  0  0  0  0
   16.1304   -9.6822   31.9177 N   0  0  0  0  0  0  0  0  0  0  0  0
   18.4961  -12.6873   23.4723 N   0  0  0  0  0  0  0  0  0  0  0  0
   17.2892   -8.3889   25.7541 N   0  0  0  0  0  0  0  0  0  0  0  0
   14.8826   -9.3982   26.4862 O   0  0  0  0  0  0  0  0  0  0  0  0
   14.3817  -12.3669   26.4252 O   0  0  0  0  0  0  0  0  0  0  0  0
   15.9121  -13.7676   24.3946 O   0  0  0  0  0  0  0  0  0  0  0  0
   13.0010   -6.5082   29.0035 O   0  0  0  0  0  0  0  0  0  0  0  0
   14.2532  -10.3538   28.6043 O   0  0  0  0  0  0  0  0  0  0  0  0
  1  5  1  0  0  0  0
  1 18  1  1  0  0  0
  2 18  1  6  0  0  0
  2  3  1  0  0  0  0
  2 12  1  0  0  0  0
  3 19  1  1  0  0  0
  3  4  1  0  0  0  0
  4 20  1  6  0  0  0
  4 10  1  0  0  0  0
  5  6  1  0  0  0  0
  5 14  1  6  0  0  0
  6 21  1  1  0  0  0
  7 13  1  1  0  0  0
  7  6  1  0  0  0  0
  8  9  1  1  0  0  0
  8  7  1  0  0  0  0
 10 16  1  1  0  0  0
 11 10  1  0  0  0  0
 12 17  1  1  0  0  0
 12 11  1  0  0  0  0
 15  9  1  0  0  0  0
 22  8  1  0  0  0  0
 22  1  1  0  0  0  0
M  END
>  <CHROM.1>
173.32827579,56.08031044,-62.74315024,15.24703531,-9.90164709,27.24828726
2.27067935,-0.94383424,1.54409037

>  <Name>
lig.pdb

>  <RI>
0

>  <Rbt.Current_Directory>
/home/itssahil/PROJECTS/Mol_Feturizer/New_Systems/rnas/5bxk

>  <Rbt.Executable>
rbdock ($Id: //depot/dev/client3/rdock/2013.1/src/exe/rbdock.cxx#4 $)

>  <Rbt.Library>
libRbt.so (2013.1, Build901 2013/11/27)

>  <Rbt.Parameter_File>
/export/apps/rDock/src/rDock_2013.1_src/data/scripts/dock_solv.prm

>  <Rbt.Receptor>
prm/pocket_docking_7.prm

>  <SCORE>
-11.9281

>  <SCORE.INTER>
-8.23715

>  <SCORE.INTER.CONST>
1

>  <SCORE.INTER.POLAR>
0

>  <SCORE.INTER.ROT>
3

>  <SCORE.INTER.SOLV>
16.7005

>  <SCORE.INTER.VDW>
-16.6583

>  <SCORE.INTER.norm>
-0.374416

>  <SCORE.INTRA>
-3.69092

>  <SCORE.INTRA.DIHEDRAL>
-6.73354

>  <SCORE.INTRA.DIHEDRAL.0>
7.18044

>  <SCORE.INTRA.POLAR>
0

>  <SCORE.INTRA.POLAR.0>
0

>  <SCORE.INTRA.REPUL>
0

>  <SCORE.INTRA.REPUL.0>
0

>  <SCORE.INTRA.SOLV>
-0.879673

>  <SCORE.INTRA.SOLV.lig_0>
-72.0615

>  <SCORE.INTRA.VDW>
0.115685

>  <SCORE.INTRA.VDW.0>
-1.54792

>  <SCORE.INTRA.norm>
-0.167769

>  <SCORE.RESTR>
0

>  <SCORE.RESTR.CAVITY>
0

>  <SCORE.RESTR.norm>
0

>  <SCORE.SYSTEM>
0

>  <SCORE.SYSTEM.CONST>
0

>  <SCORE.SYSTEM.DIHEDRAL>
0

>  <SCORE.SYSTEM.SOLV>
0

>  <SCORE.SYSTEM.norm>
0

>  <SCORE.heavy>
22

>  <SCORE.norm>
-0.542185

>  <RMSD>
6.429

$$$$
lig.pdb
 OpenBabel11021811523D
libRbt.so/2013.1/901 2013/11/27
 22 23  0  0  0  0  0  0  0  0999 V2000
   13.8111   -9.5743   27.2501 C   0  0  1  0  0  0  0  0  0  0  0  0
   15.8735  -10.3473   26.0680 C   0  0  1  0  0  0  0  0  0  0  0  0
   15.2194  -11.6890   25.3891 C   0  0  1  0  0  0  0  0  0  0  0  0
   16.4325  -12.6718   24.9919 C   0  0  2  0  0  0  0  0  0  0  0  0
   12.9370   -8.3024   27.6531 C   0  0  1  0  0  0  0  0  0  0  0  0
   13.7355   -7.3750   28.6499 C   0  0  2  0  0  0  0  0  0  0  0  0
   14.0417   -8.2138   29.9860 C   0  0  1  0  0  0  0  0  0  0  0  0
   14.9895   -9.4824   29.6437 C   0  0  1  0  0  0  0  0  0  0  0  0
   15.3480  -10.3484   30.8830 C   0  0  0  0  0  0  0  0  0  0  0  0
   17.3280  -11.9167   23.8919 C   0  0  1  0  0  0  0  0  0  0  0  0
   17.9402  -10.5986   24.5892 C   0  0  0  0  0  0  0  0  0  0  0  0
   16.7787   -9.6171   25.0471 C   0  0  2  0  0  0  0  0  0  0  0  0
   14.7670   -7.4121   30.9774 F   0  0  0  0  0  0  0  0  0  0  0  0
   12.5887   -7.6028   26.3307 N   0  0  0  0  0  0  0  0  0  0  0  0
   16.0705   -9.6602   31.8892 N   0  0  0  0  0  0  0  0  0  0  0  0
   18.4870  -12.7731   23.4862 N   0  0  0  0  0  0  0  0  0  0  0  0
   17.3195   -8.4260   25.6951 N   0  0  0  0  0  0  0  0  0  0  0  0
   14.8987   -9.3965   26.4327 O   0  0  0  0  0  0  0  0  0  0  0  0
   14.3646  -12.3600   26.4164 O   0  0  0  0  0  0  0  0  0  0  0  0
   15.8873  -13.8096   24.4145 O   0  0  0  0  0  0  0  0  0  0  0  0
   13.0444   -6.4605   28.9168 O   0  0  0  0  0  0  0  0  0  0  0  0
   14.2356  -10.3287   28.5510 O   0  0  0  0  0  0  0  0  0  0  0  0
  1  5  1  0  0  0  0
  1 18  1  1  0  0  0
  2 18  1  6  0  0  0
  2  3  1  0  0  0  0
  2 12  1  0  0  0  0
  3 19  1  1  0  0  0
  3  4  1  0  0  0  0
  4 20  1  6  0  0  0
  4 10  1  0  0  0  0
  5  6  1  0  0  0  0
  5 14  1  6  0  0  0
  6 21  1  1  0  0  0
  7 13  1  1  0  0  0
  7  6  1  0  0  0  0
  8  9  1  1  0  0  0
  8  7  1  0  0  0  0
 10 16  1  1  0  0  0
 11 10  1  0  0  0  0
 12 17  1  1  0  0  0
 12 11  1  0  0  0  0
 15  9  1  0  0  0  0
 22  8  1  0  0  0  0
 22  1  1  0  0  0  0
M  END
>  <CHROM.1>
173.00562967,55.64146087,-61.43058294,15.24920016,-9.90331477,27.20722989
2.30328913,-0.97182118,1.56873969

>  <Name>
lig.pdb

>  <RI>
0

>  <Rbt.Current_Directory>
/home/itssahil/PROJECTS/Mol_Feturizer/New_Systems/rnas/5bxk

>  <Rbt.Executable>
rbdock ($Id: //depot/dev/client3/rdock/2013.1/src/exe/rbdock.cxx#4 $)

>  <Rbt.Library>
libRbt.so (2013.1, Build901 2013/11/27)

>  <Rbt.Parameter_File>
/export/apps/rDock/src/rDock_2013.1_src/data/scripts/dock_solv.prm

>  <Rbt.Receptor>
prm/pocket_docking_6.prm

>  <SCORE>
-11.9365

>  <SCORE.INTER>
-8.30235

>  <SCORE.INTER.CONST>
1

>  <SCORE.INTER.POLAR>
0

>  <SCORE.INTER.ROT>
3

>  <SCORE.INTER.SOLV>
16.4915

>  <SCORE.INTER.VDW>
-16.6321

>  <SCORE.INTER.norm>
-0.377379

>  <SCORE.INTRA>
-3.63414

>  <SCORE.INTRA.DIHEDRAL>
-6.71476

>  <SCORE.INTRA.DIHEDRAL.0>
7.18044

>  <SCORE.INTRA.POLAR>
0

>  <SCORE.INTRA.POLAR.0>
0

>  <SCORE.INTRA.REPUL>
0

>  <SCORE.INTRA.REPUL.0>
0

>  <SCORE.INTRA.SOLV>
-0.854834

>  <SCORE.INTRA.SOLV.lig_0>
-72.0615

>  <SCORE.INTRA.VDW>
0.150657

>  <SCORE.INTRA.VDW.0>
-1.54792

>  <SCORE.INTRA.norm>
-0.165188

>  <SCORE.RESTR>
0

>  <SCORE.RESTR.CAVITY>
0

>  <SCORE.RESTR.norm>
0

>  <SCORE.SYSTEM>
0

>  <SCORE.SYSTEM.CONST>
0

>  <SCORE.SYSTEM.DIHEDRAL>
0

>  <SCORE.SYSTEM.SOLV>
0

>  <SCORE.SYSTEM.norm>
0

>  <SCORE.heavy>
22

>  <SCORE.norm>
-0.542568

>  <RMSD>
6.434

$$$$
lig.pdb
 OpenBabel11021811523D
libRbt.so/2013.1/901 2013/11/27
 22 23  0  0  0  0  0  0  0  0999 V2000
   13.8211   -9.5442   27.2524 C   0  0  1  0  0  0  0  0  0  0  0  0
   15.8673  -10.3485   26.0630 C   0  0  1  0  0  0  0  0  0  0  0  0
   15.1995  -11.6869   25.3908 C   0  0  1  0  0  0  0  0  0  0  0  0
   16.4025  -12.6841   24.9990 C   0  0  2  0  0  0  0  0  0  0  0  0
   12.9717   -8.2577   27.6615 C   0  0  1  0  0  0  0  0  0  0  0  0
   13.7958   -7.3403   28.6467 C   0  0  2  0  0  0  0  0  0  0  0  0
   14.1036   -8.1801   29.9817 C   0  0  1  0  0  0  0  0  0  0  0  0
   15.0274   -9.4645   29.6325 C   0  0  1  0  0  0  0  0  0  0  0  0
   15.3861  -10.3327   30.8702 C   0  0  0  0  0  0  0  0  0  0  0  0
   17.3059  -11.9440   23.8953 C   0  0  1  0  0  0  0  0  0  0  0  0
   17.9315  -10.6286   24.5859 C   0  0  0  0  0  0  0  0  0  0  0  0
   16.7801   -9.6330   25.0385 C   0  0  2  0  0  0  0  0  0  0  0  0
   14.8525   -7.3873   30.9626 F   0  0  0  0  0  0  0  0  0  0  0  0
   12.6197   -7.5562   26.3409 N   0  0  0  0  0  0  0  0  0  0  0  0
   16.1608   -9.6637   31.8503 N   0  0  0  0  0  0  0  0  0  0  0  0
   18.4562  -12.8143   23.4943 N   0  0  0  0  0  0  0  0  0  0  0  0
   17.3329   -8.4441   25.6805 N   0  0  0  0  0  0  0  0  0  0  0  0
   14.9022   -9.3859   26.4225 O   0  0  0  0  0  0  0  0  0  0  0  0
   14.3377  -12.3438   26.4213 O   0  0  0  0  0  0  0  0  0  0  0  0
   15.8458  -13.8193   24.4273 O   0  0  0  0  0  0  0  0  0  0  0  0
   13.1222   -6.4142   28.9186 O   0  0  0  0  0  0  0  0  0  0  0  0
   14.2482  -10.3017   28.5507 O   0  0  0  0  0  0  0  0  0  0  0  0
  1  5  1  0  0  0  0
  1 18  1  1  0  0  0
  2 18  1  6  0  0  0
  2  3  1  0  0  0  0
  2 12  1  0  0  0  0
  3 19  1  1  0  0  0
  3  4  1  0  0  0  0
  4 20  1  6  0  0  0
  4 10  1  0  0  0  0
  5  6  1  0  0  0  0
  5 14  1  6  0  0  0
  6 21  1  1  0  0  0
  7 13  1  1  0  0  0
  7  6  1  0  0  0  0
  8  9  1  1  0  0  0
  8  7  1  0  0  0  0
 10 16  1  1  0  0  0
 11 10  1  0  0  0  0
 12 17  1  1  0  0  0
 12 11  1  0  0  0  0
 15  9  1  0  0  0  0
 22  8  1  0  0  0  0
 22  1  1  0  0  0  0
M  END
>  <CHROM.1>
172.13651385,56.44382955,-63.02240463,15.26696878,-9.89414155,27.20411091
2.28295979,-0.97610906,1.54155716

>  <Name>
lig.pdb

>  <RI>
0

>  <Rbt.Current_Directory>
/home/itssahil/PROJECTS/Mol_Feturizer/New_Systems/rnas/5bxk

>  <Rbt.Executable>
rbdock ($Id: //depot/dev/client3/rdock/2013.1/src/exe/rbdock.cxx#4 $)

>  <Rbt.Library>
libRbt.so (2013.1, Build901 2013/11/27)

>  <Rbt.Parameter_File>
/export/apps/rDock/src/rDock_2013.1_src/data/scripts/dock_solv.prm

>  <Rbt.Receptor>
prm/pocket_docking_7.prm

>  <SCORE>
-11.8882

>  <SCORE.INTER>
-8.24683

>  <SCORE.INTER.CONST>
1

>  <SCORE.INTER.POLAR>
0

>  <SCORE.INTER.ROT>
3

>  <SCORE.INTER.SOLV>
16.2853

>  <SCORE.INTER.VDW>
-16.5263

>  <SCORE.INTER.norm>
-0.374856

>  <SCORE.INTRA>
-3.64139

>  <SCORE.INTRA.DIHEDRAL>
-6.66082

>  <SCORE.INTRA.DIHEDRAL.0>
7.18044

>  <SCORE.INTRA.POLAR>
0

>  <SCORE.INTRA.POLAR.0>
0

>  <SCORE.INTRA.REPUL>
0

>  <SCORE.INTRA.REPUL.0>
0

>  <SCORE.INTRA.SOLV>
-0.877111

>  <SCORE.INTRA.SOLV.lig_0>
-72.0615

>  <SCORE.INTRA.VDW>
0.127577

>  <SCORE.INTRA.VDW.0>
-1.54792

>  <SCORE.INTRA.norm>
-0.165518

>  <SCORE.RESTR>
0

>  <SCORE.RESTR.CAVITY>
0

>  <SCORE.RESTR.norm>
0

>  <SCORE.SYSTEM>
0

>  <SCORE.SYSTEM.CONST>
0

>  <SCORE.SYSTEM.DIHEDRAL>
0

>  <SCORE.SYSTEM.SOLV>
0

>  <SCORE.SYSTEM.norm>
0

>  <SCORE.heavy>
22

>  <SCORE.norm>
-0.540373

>  <RMSD>
6.436

$$$$
lig.pdb
 OpenBabel11021811523D
libRbt.so/2013.1/901 2013/11/27
 22 23  0  0  0  0  0  0  0  0999 V2000
   13.7408   -9.4679   27.2446 C   0  0  1  0  0  0  0  0  0  0  0  0
   15.8066  -10.2371   26.0660 C   0  0  1  0  0  0  0  0  0  0  0  0
   15.1621  -11.6015   25.4240 C   0  0  1  0  0  0  0  0  0  0  0  0
   16.3831  -12.5774   25.0344 C   0  0  2  0  0  0  0  0  0  0  0  0
   12.8805   -8.1930   27.6673 C   0  0  1  0  0  0  0  0  0  0  0  0
   13.6942   -7.2828   28.6677 C   0  0  2  0  0  0  0  0  0  0  0  0
   14.0030   -8.1380   29.9927 C   0  0  1  0  0  0  0  0  0  0  0  0
   14.9374   -9.4109   29.6302 C   0  0  1  0  0  0  0  0  0  0  0  0
   15.2976  -10.2928   30.8578 C   0  0  0  0  0  0  0  0  0  0  0  0
   17.2564  -11.8355   23.9079 C   0  0  1  0  0  0  0  0  0  0  0  0
   17.8595  -10.4948   24.5691 C   0  0  0  0  0  0  0  0  0  0  0  0
   16.6908   -9.5182   25.0189 C   0  0  2  0  0  0  0  0  0  0  0  0
   14.7423   -7.3529   30.9869 F   0  0  0  0  0  0  0  0  0  0  0  0
   12.5286   -7.4767   26.3547 N   0  0  0  0  0  0  0  0  0  0  0  0
   16.0520   -9.6274   31.8559 N   0  0  0  0  0  0  0  0  0  0  0  0
   18.4217  -12.6859   23.5076 N   0  0  0  0  0  0  0  0  0  0  0  0
   17.2235   -8.3064   25.6345 N   0  0  0  0  0  0  0  0  0  0  0  0
   14.8238   -9.2908   26.4211 O   0  0  0  0  0  0  0  0  0  0  0  0
   14.3276  -12.2605   26.4755 O   0  0  0  0  0  0  0  0  0  0  0  0
   15.8460  -13.7344   24.4882 O   0  0  0  0  0  0  0  0  0  0  0  0
   13.0129   -6.3653   28.9491 O   0  0  0  0  0  0  0  0  0  0  0  0
   14.1684  -10.2394   28.5345 O   0  0  0  0  0  0  0  0  0  0  0  0
  1  5  1  0  0  0  0
  1 18  1  1  0  0  0
  2 18  1  6  0  0  0
  2  3  1  0  0  0  0
  2 12  1  0  0  0  0
  3 19  1  1  0  0  0
  3  4  1  0  0  0  0
  4 20  1  6  0  0  0
  4 10  1  0  0  0  0
  5  6  1  0  0  0  0
  5 14  1  6  0  0  0
  6 21  1  1  0  0  0
  7 13  1  1  0  0  0
  7  6  1  0  0  0  0
  8  9  1  1  0  0  0
  8  7  1  0  0  0  0
 10 16  1  1  0  0  0
 11 10  1  0  0  0  0
 12 17  1  1  0  0  0
 12 11  1  0  0  0  0
 15  9  1  0  0  0  0
 22  8  1  0  0  0  0
 22  1  1  0  0  0  0
M  END
>  <CHROM.1>
171.26607189,54.96177439,-62.40940749,15.19365468,-9.81395551,27.21405735
2.33705146,-0.99419718,1.60660395

>  <Name>
lig.pdb

>  <RI>
0

>  <Rbt.Current_Directory>
/home/itssahil/PROJECTS/Mol_Feturizer/New_Systems/rnas/5bxk

>  <Rbt.Executable>
rbdock ($Id: //depot/dev/client3/rdock/2013.1/src/exe/rbdock.cxx#4 $)

>  <Rbt.Library>
libRbt.so (2013.1, Build901 2013/11/27)

>  <Rbt.Parameter_File>
/export/apps/rDock/src/rDock_2013.1_src/data/scripts/dock_solv.prm

>  <Rbt.Receptor>
prm/pocket_docking_7.prm

>  <SCORE>
-11.8325

>  <SCORE.INTER>
-8.29561

>  <SCORE.INTER.CONST>
1

>  <SCORE.INTER.POLAR>
0

>  <SCORE.INTER.ROT>
3

>  <SCORE.INTER.SOLV>
16.347

>  <SCORE.INTER.VDW>
-16.5794

>  <SCORE.INTER.norm>
-0.377073

>  <SCORE.INTRA>
-3.53693

>  <SCORE.INTRA.DIHEDRAL>
-6.5439

>  <SCORE.INTRA.DIHEDRAL.0>
7.18044

>  <SCORE.INTRA.POLAR>
0

>  <SCORE.INTRA.POLAR.0>
0

>  <SCORE.INTRA.REPUL>
0

>  <SCORE.INTRA.REPUL.0>
0

>  <SCORE.INTRA.SOLV>
-0.845824

>  <SCORE.INTRA.SOLV.lig_0>
-72.0615

>  <SCORE.INTRA.VDW>
0.15793

>  <SCORE.INTRA.VDW.0>
-1.54792

>  <SCORE.INTRA.norm>
-0.16077

>  <SCORE.RESTR>
0

>  <SCORE.RESTR.CAVITY>
0

>  <SCORE.RESTR.norm>
0

>  <SCORE.SYSTEM>
0

>  <SCORE.SYSTEM.CONST>
0

>  <SCORE.SYSTEM.DIHEDRAL>
0

>  <SCORE.SYSTEM.SOLV>
0

>  <SCORE.SYSTEM.norm>
0

>  <SCORE.heavy>
22

>  <SCORE.norm>
-0.537843

>  <RMSD>
6.437

$$$$
lig.pdb
 OpenBabel11021811523D
libRbt.so/2013.1/901 2013/11/27
 22 23  0  0  0  0  0  0  0  0999 V2000
   13.8057   -9.6185   27.3489 C   0  0  1  0  0  0  0  0  0  0  0  0
   15.8455  -10.3550   26.1058 C   0  0  1  0  0  0  0  0  0  0  0  0
   15.2070  -11.6989   25.4163 C   0  0  1  0  0  0  0  0  0  0  0  0
   16.4322  -12.6568   24.9962 C   0  0  2  0  0  0  0  0  0  0  0  0
   12.9138   -8.3636   27.7661 C   0  0  1  0  0  0  0  0  0  0  0  0
   13.7229   -7.4023   28.7214 C   0  0  2  0  0  0  0  0  0  0  0  0
   14.0978   -8.2141   30.0566 C   0  0  1  0  0  0  0  0  0  0  0  0
   15.0653   -9.4630   29.6974 C   0  0  1  0  0  0  0  0  0  0  0  0
   15.4897  -10.3021   30.9344 C   0  0  0  0  0  0  0  0  0  0  0  0
   17.3051  -11.8739   23.8975 C   0  0  1  0  0  0  0  0  0  0  0  0
   17.9023  -10.5545   24.6054 C   0  0  0  0  0  0  0  0  0  0  0  0
   16.7292   -9.5978   25.0858 C   0  0  2  0  0  0  0  0  0  0  0  0
   14.8367   -7.3804   31.0108 F   0  0  0  0  0  0  0  0  0  0  0  0
   12.5010   -7.6918   26.4478 N   0  0  0  0  0  0  0  0  0  0  0  0
   16.2474   -9.5872   31.8951 N   0  0  0  0  0  0  0  0  0  0  0  0
   18.4741  -12.7062   23.4709 N   0  0  0  0  0  0  0  0  0  0  0  0
   17.2565   -8.4059   25.7434 N   0  0  0  0  0  0  0  0  0  0  0  0
   14.8587   -9.4248   26.4909 O   0  0  0  0  0  0  0  0  0  0  0  0
   14.3727  -12.3962   26.4430 O   0  0  0  0  0  0  0  0  0  0  0  0
   15.9002  -13.7963   24.4098 O   0  0  0  0  0  0  0  0  0  0  0  0
   13.0183   -6.5019   29.0007 O   0  0  0  0  0  0  0  0  0  0  0  0
   14.2953  -10.3435   28.6437 O   0  0  0  0  0  0  0  0  0  0  0  0
  1  5  1  0  0  0  0
  1 18  1  1  0  0  0
  2 18  1  6  0  0  0
  2  3  1  0  0  0  0
  2 12  1  0  0  0  0
  3 19  1  1  0  0  0
  3  4  1  0  0  0  0
  4 20  1  6  0  0  0
  4 10  1  0  0  0  0
  5  6  1  0  0  0  0
  5 14  1  6  0  0  0
  6 21  1  1  0  0  0
  7 13  1  1  0  0  0
  7  6  1  0  0  0  0
  8  9  1  1  0  0  0
  8  7  1  0  0  0  0
 10 16  1  1  0  0  0
 11 10  1  0  0  0  0
 12 17  1  1  0  0  0
 12 11  1  0  0  0  0
 15  9  1  0  0  0  0
 22  8  1  0  0  0  0
 22  1  1  0  0  0  0
M  END
>  <CHROM.1>
172.89752048,57.89254830,-62.37985661,15.25848714,-9.90190548,27.25402785
2.20568342,-0.90471267,1.46142691

>  <Name>
lig.pdb

>  <RI>
0

>  <Rbt.Current_Directory>
/home/itssahil/PROJECTS/Mol_Feturizer/New_Systems/rnas/5bxk

>  <Rbt.Executable>
rbdock ($Id: //depot/dev/client3/rdock/2013.1/src/exe/rbdock.cxx#4 $)

>  <Rbt.Library>
libRbt.so (2013.1, Build901 2013/11/27)

>  <Rbt.Parameter_File>
/export/apps/rDock/src/rDock_2013.1_src/data/scripts/dock_solv.prm

>  <Rbt.Receptor>
prm/pocket_docking_6.prm

>  <SCORE>
-11.8746

>  <SCORE.INTER>
-8.16016

>  <SCORE.INTER.CONST>
1

>  <SCORE.INTER.POLAR>
0

>  <SCORE.INTER.ROT>
3

>  <SCORE.INTER.SOLV>
16.7273

>  <SCORE.INTER.VDW>
-16.6159

>  <SCORE.INTER.norm>
-0.370917

>  <SCORE.INTRA>
-3.71444

>  <SCORE.INTRA.DIHEDRAL>
-6.76626

>  <SCORE.INTRA.DIHEDRAL.0>
7.18044

>  <SCORE.INTRA.POLAR>
0

>  <SCORE.INTRA.POLAR.0>
0

>  <SCORE.INTRA.REPUL>
0

>  <SCORE.INTRA.REPUL.0>
0

>  <SCORE.INTRA.SOLV>
-0.888062

>  <SCORE.INTRA.SOLV.lig_0>
-72.0615

>  <SCORE.INTRA.VDW>
0.112722

>  <SCORE.INTRA.VDW.0>
-1.54792

>  <SCORE.INTRA.norm>
-0.168838

>  <SCORE.RESTR>
0

>  <SCORE.RESTR.CAVITY>
0

>  <SCORE.RESTR.norm>
0

>  <SCORE.SYSTEM>
0

>  <SCORE.SYSTEM.CONST>
0

>  <SCORE.SYSTEM.DIHEDRAL>
0

>  <SCORE.SYSTEM.SOLV>
0

>  <SCORE.SYSTEM.norm>
0

>  <SCORE.heavy>
22

>  <SCORE.norm>
-0.539755

>  <RMSD>
6.442

$$$$
lig.pdb
 OpenBabel11021811523D
libRbt.so/2013.1/901 2013/11/27
 22 23  0  0  0  0  0  0  0  0999 V2000
   13.7451   -9.5066   27.2529 C   0  0  1  0  0  0  0  0  0  0  0  0
   15.8025  -10.2693   26.0554 C   0  0  1  0  0  0  0  0  0  0  0  0
   15.1587  -11.6295   25.4037 C   0  0  1  0  0  0  0  0  0  0  0  0
   16.3803  -12.6014   25.0061 C   0  0  2  0  0  0  0  0  0  0  0  0
   12.8802   -8.2353   27.6767 C   0  0  1  0  0  0  0  0  0  0  0  0
   13.6970   -7.3140   28.6644 C   0  0  2  0  0  0  0  0  0  0  0  0
   14.0242   -8.1597   29.9910 C   0  0  1  0  0  0  0  0  0  0  0  0
   14.9639   -9.4282   29.6266 C   0  0  1  0  0  0  0  0  0  0  0  0
   15.3418  -10.3008   30.8556 C   0  0  0  0  0  0  0  0  0  0  0  0
   17.2521  -11.8504   23.8845 C   0  0  1  0  0  0  0  0  0  0  0  0
   17.8546  -10.5141   24.5552 C   0  0  0  0  0  0  0  0  0  0  0  0
   16.6853   -9.5419   25.0131 C   0  0  2  0  0  0  0  0  0  0  0  0
   14.7675   -7.3641   30.9739 F   0  0  0  0  0  0  0  0  0  0  0  0
   12.5108   -7.5287   26.3637 N   0  0  0  0  0  0  0  0  0  0  0  0
   16.0868   -9.6201   31.8504 N   0  0  0  0  0  0  0  0  0  0  0  0
   18.4179  -12.6968   23.4771 N   0  0  0  0  0  0  0  0  0  0  0  0
   17.2174   -8.3342   25.6372 N   0  0  0  0  0  0  0  0  0  0  0  0
   14.8191   -9.3266   26.4182 O   0  0  0  0  0  0  0  0  0  0  0  0
   14.3255  -12.2970   26.4509 O   0  0  0  0  0  0  0  0  0  0  0  0
   15.8439  -13.7549   24.4517 O   0  0  0  0  0  0  0  0  0  0  0  0
   13.0120   -6.3996   28.9473 O   0  0  0  0  0  0  0  0  0  0  0  0
   14.1903  -10.2680   28.5428 O   0  0  0  0  0  0  0  0  0  0  0  0
  1  5  1  0  0  0  0
  1 18  1  1  0  0  0
  2 18  1  6  0  0  0
  2  3  1  0  0  0  0
  2 12  1  0  0  0  0
  3 19  1  1  0  0  0
  3  4  1  0  0  0  0
  4 20  1  6  0  0  0
  4 10  1  0  0  0  0
  5  6  1  0  0  0  0
  5 14  1  6  0  0  0
  6 21  1  1  0  0  0
  7 13  1  1  0  0  0
  7  6  1  0  0  0  0
  8  9  1  1  0  0  0
  8  7  1  0  0  0  0
 10 16  1  1  0  0  0
 11 10  1  0  0  0  0
 12 17  1  1  0  0  0
 12 11  1  0  0  0  0
 15  9  1  0  0  0  0
 22  8  1  0  0  0  0
 22  1  1  0  0  0  0
M  END
>  <CHROM.1>
171.49875905,55.75925871,-61.66453835,15.19930093,-9.83892739,27.20522676
2.30273317,-0.97750708,1.57011395

>  <Name>
lig.pdb

>  <RI>
0

>  <Rbt.Current_Directory>
/home/itssahil/PROJECTS/Mol_Feturizer/New_Systems/rnas/5bxk

>  <Rbt.Executable>
rbdock ($Id: //depot/dev/client3/rdock/2013.1/src/exe/rbdock.cxx#4 $)

>  <Rbt.Library>
libRbt.so (2013.1, Build901 2013/11/27)

>  <Rbt.Parameter_File>
/export/apps/rDock/src/rDock_2013.1_src/data/scripts/dock_solv.prm

>  <Rbt.Receptor>
prm/pocket_docking_7.prm

>  <SCORE>
-11.8698

>  <SCORE.INTER>
-8.29219

>  <SCORE.INTER.CONST>
1

>  <SCORE.INTER.POLAR>
0

>  <SCORE.INTER.ROT>
3

>  <SCORE.INTER.SOLV>
16.6218

>  <SCORE.INTER.VDW>
-16.6687

>  <SCORE.INTER.norm>
-0.376918

>  <SCORE.INTRA>
-3.57763

>  <SCORE.INTRA.DIHEDRAL>
-6.60927

>  <SCORE.INTRA.DIHEDRAL.0>
7.18044

>  <SCORE.INTRA.POLAR>
0

>  <SCORE.INTRA.POLAR.0>
0

>  <SCORE.INTRA.REPUL>
0

>  <SCORE.INTRA.REPUL.0>
0

>  <SCORE.INTRA.SOLV>
-0.845752

>  <SCORE.INTRA.SOLV.lig_0>
-72.0615

>  <SCORE.INTRA.VDW>
0.149879

>  <SCORE.INTRA.VDW.0>
-1.54792

>  <SCORE.INTRA.norm>
-0.16262

>  <SCORE.RESTR>
0

>  <SCORE.RESTR.CAVITY>
0

>  <SCORE.RESTR.norm>
0

>  <SCORE.SYSTEM>
0

>  <SCORE.SYSTEM.CONST>
0

>  <SCORE.SYSTEM.DIHEDRAL>
0

>  <SCORE.SYSTEM.SOLV>
0

>  <SCORE.SYSTEM.norm>
0

>  <SCORE.heavy>
22

>  <SCORE.norm>
-0.539537

>  <RMSD>
6.444

$$$$
lig.pdb
 OpenBabel11021811523D
libRbt.so/2013.1/901 2013/11/27
 22 23  0  0  0  0  0  0  0  0999 V2000
   13.8740   -9.6487   27.3250 C   0  0  1  0  0  0  0  0  0  0  0  0
   15.8902  -10.4198   26.0646 C   0  0  1  0  0  0  0  0  0  0  0  0
   15.2066  -11.7430   25.3784 C   0  0  1  0  0  0  0  0  0  0  0  0
   16.4001  -12.7282   24.9311 C   0  0  2  0  0  0  0  0  0  0  0  0
   12.9957   -8.3829   27.7380 C   0  0  1  0  0  0  0  0  0  0  0  0
   13.8118   -7.4320   28.6978 C   0  0  2  0  0  0  0  0  0  0  0  0
   14.1697   -8.2487   30.0347 C   0  0  1  0  0  0  0  0  0  0  0  0
   15.1234   -9.5095   29.6800 C   0  0  1  0  0  0  0  0  0  0  0  0
   15.5309  -10.3541   30.9190 C   0  0  0  0  0  0  0  0  0  0  0  0
   17.2729  -11.9602   23.8220 C   0  0  1  0  0  0  0  0  0  0  0  0
   17.9149  -10.6605   24.5271 C   0  0  0  0  0  0  0  0  0  0  0  0
   16.7746   -9.6782   25.0337 C   0  0  2  0  0  0  0  0  0  0  0  0
   14.9140   -7.4245   30.9929 F   0  0  0  0  0  0  0  0  0  0  0  0
   12.5980   -7.7057   26.4179 N   0  0  0  0  0  0  0  0  0  0  0  0
   16.3335   -9.6631   31.8605 N   0  0  0  0  0  0  0  0  0  0  0  0
   18.4133  -12.8184   23.3699 N   0  0  0  0  0  0  0  0  0  0  0  0
   17.3427   -8.5039   25.6891 N   0  0  0  0  0  0  0  0  0  0  0  0
   14.9337   -9.4679   26.4725 O   0  0  0  0  0  0  0  0  0  0  0  0
   14.3732  -12.4260   26.4154 O   0  0  0  0  0  0  0  0  0  0  0  0
   15.8298  -13.8505   24.3473 O   0  0  0  0  0  0  0  0  0  0  0  0
   13.1170   -6.5229   28.9738 O   0  0  0  0  0  0  0  0  0  0  0  0
   14.3479  -10.3800   28.6221 O   0  0  0  0  0  0  0  0  0  0  0  0
  1  5  1  0  0  0  0
  1 18  1  1  0  0  0
  2 18  1  6  0  0  0
  2  3  1  0  0  0  0
  2 12  1  0  0  0  0
  3 19  1  1  0  0  0
  3  4  1  0  0  0  0
  4 20  1  6  0  0  0
  4 10  1  0  0  0  0
  5  6  1  0  0  0  0
  5 14  1  6  0  0  0
  6 21  1  1  0  0  0
  7 13  1  1  0  0  0
  7  6  1  0  0  0  0
  8  9  1  1  0  0  0
  8  7  1  0  0  0  0
 10 16  1  1  0  0  0
 11 10  1  0  0  0  0
 12 17  1  1  0  0  0
 12 11  1  0  0  0  0
 15  9  1  0  0  0  0
 22  8  1  0  0  0  0
 22  1  1  0  0  0  0
M  END
>  <CHROM.1>
174.73923097,56.32790303,-64.56375278,15.29929335,-9.95559529,27.21483558
2.19485998,-0.92808597,1.46075017

>  <Name>
lig.pdb

>  <RI>
0

>  <Rbt.Current_Directory>
/home/itssahil/PROJECTS/Mol_Feturizer/New_Systems/rnas/5bxk

>  <Rbt.Executable>
rbdock ($Id: //depot/dev/client3/rdock/2013.1/src/exe/rbdock.cxx#4 $)

>  <Rbt.Library>
libRbt.so (2013.1, Build901 2013/11/27)

>  <Rbt.Parameter_File>
/export/apps/rDock/src/rDock_2013.1_src/data/scripts/dock_solv.prm

>  <Rbt.Receptor>
prm/pocket_docking_6.prm

>  <SCORE>
-11.857

>  <SCORE.INTER>
-8.12737

>  <SCORE.INTER.CONST>
1

>  <SCORE.INTER.POLAR>
0

>  <SCORE.INTER.ROT>
3

>  <SCORE.INTER.SOLV>
17.1495

>  <SCORE.INTER.VDW>
-16.7348

>  <SCORE.INTER.norm>
-0.369426

>  <SCORE.INTRA>
-3.7296

>  <SCORE.INTRA.DIHEDRAL>
-6.77399

>  <SCORE.INTRA.DIHEDRAL.0>
7.18044

>  <SCORE.INTRA.POLAR>
0

>  <SCORE.INTRA.POLAR.0>
0

>  <SCORE.INTRA.REPUL>
0

>  <SCORE.INTRA.REPUL.0>
0

>  <SCORE.INTRA.SOLV>
-0.9183

>  <SCORE.INTRA.SOLV.lig_0>
-72.0615

>  <SCORE.INTRA.VDW>
0.116546

>  <SCORE.INTRA.VDW.0>
-1.54792

>  <SCORE.INTRA.norm>
-0.169527

>  <SCORE.RESTR>
0

>  <SCORE.RESTR.CAVITY>
0

>  <SCORE.RESTR.norm>
0

>  <SCORE.SYSTEM>
0

>  <SCORE.SYSTEM.CONST>
0

>  <SCORE.SYSTEM.DIHEDRAL>
0

>  <SCORE.SYSTEM.SOLV>
0

>  <SCORE.SYSTEM.norm>
0

>  <SCORE.heavy>
22

>  <SCORE.norm>
-0.538953

>  <RMSD>
6.454

$$$$
lig.pdb
 OpenBabel11021811523D
libRbt.so/2013.1/901 2013/11/27
 22 23  0  0  0  0  0  0  0  0999 V2000
   13.8661   -9.6383   27.3241 C   0  0  1  0  0  0  0  0  0  0  0  0
   15.8789  -10.4099   26.0585 C   0  0  1  0  0  0  0  0  0  0  0  0
   15.1954  -11.7318   25.3694 C   0  0  1  0  0  0  0  0  0  0  0  0
   16.3889  -12.7167   24.9216 C   0  0  2  0  0  0  0  0  0  0  0  0
   12.9870   -8.3728   27.7361 C   0  0  1  0  0  0  0  0  0  0  0  0
   13.8048   -7.4172   28.6897 C   0  0  2  0  0  0  0  0  0  0  0  0
   14.1691   -8.2287   30.0280 C   0  0  1  0  0  0  0  0  0  0  0  0
   15.1239   -9.4889   29.6740 C   0  0  1  0  0  0  0  0  0  0  0  0
   15.5376  -10.3286   30.9143 C   0  0  0  0  0  0  0  0  0  0  0  0
   17.2631  -11.9471   23.8146 C   0  0  1  0  0  0  0  0  0  0  0  0
   17.9050  -10.6489   24.5225 C   0  0  0  0  0  0  0  0  0  0  0  0
   16.7646   -9.6670   25.0297 C   0  0  2  0  0  0  0  0  0  0  0  0
   14.9154   -7.4000   30.9807 F   0  0  0  0  0  0  0  0  0  0  0  0
   12.5832   -7.7007   26.4152 N   0  0  0  0  0  0  0  0  0  0  0  0
   16.3233   -9.6262   31.8615 N   0  0  0  0  0  0  0  0  0  0  0  0
   18.4035  -12.8050   23.3621 N   0  0  0  0  0  0  0  0  0  0  0  0
   17.3325   -8.4940   25.6876 N   0  0  0  0  0  0  0  0  0  0  0  0
   14.9224   -9.4584   26.4671 O   0  0  0  0  0  0  0  0  0  0  0  0
   14.3608  -12.4161   26.4045 O   0  0  0  0  0  0  0  0  0  0  0  0
   15.8188  -13.8377   24.3354 O   0  0  0  0  0  0  0  0  0  0  0  0
   13.1093   -6.5085   28.9652 O   0  0  0  0  0  0  0  0  0  0  0  0
   14.3462  -10.3644   28.6219 O   0  0  0  0  0  0  0  0  0  0  0  0
  1  5  1  0  0  0  0
  1 18  1  1  0  0  0
  2 18  1  6  0  0  0
  2  3  1  0  0  0  0
  2 12  1  0  0  0  0
  3 19  1  1  0  0  0
  3  4  1  0  0  0  0
  4 20  1  6  0  0  0
  4 10  1  0  0  0  0
  5  6  1  0  0  0  0
  5 14  1  6  0  0  0
  6 21  1  1  0  0  0
  7 13  1  1  0  0  0
  7  6  1  0  0  0  0
  8  9  1  1  0  0  0
  8  7  1  0  0  0  0
 10 16  1  1  0  0  0
 11 10  1  0  0  0  0
 12 17  1  1  0  0  0
 12 11  1  0  0  0  0
 15  9  1  0  0  0  0
 22  8  1  0  0  0  0
 22  1  1  0  0  0  0
M  END
>  <CHROM.1>
174.76466036,56.72149376,-63.54349466,15.29177899,-9.94081718,27.20881762
2.18403401,-0.92027736,1.44766277

>  <Name>
lig.pdb

>  <RI>
0

>  <Rbt.Current_Directory>
/home/itssahil/PROJECTS/Mol_Feturizer/New_Systems/rnas/5bxk

>  <Rbt.Executable>
rbdock ($Id: //depot/dev/client3/rdock/2013.1/src/exe/rbdock.cxx#4 $)

>  <Rbt.Library>
libRbt.so (2013.1, Build901 2013/11/27)

>  <Rbt.Parameter_File>
/export/apps/rDock/src/rDock_2013.1_src/data/scripts/dock_solv.prm

>  <Rbt.Receptor>
prm/pocket_docking_7.prm

>  <SCORE>
-11.8993

>  <SCORE.INTER>
-8.15528

>  <SCORE.INTER.CONST>
1

>  <SCORE.INTER.POLAR>
0

>  <SCORE.INTER.ROT>
3

>  <SCORE.INTER.SOLV>
17.1219

>  <SCORE.INTER.VDW>
-16.7442

>  <SCORE.INTER.norm>
-0.370695

>  <SCORE.INTRA>
-3.74406

>  <SCORE.INTRA.DIHEDRAL>
-6.81815

>  <SCORE.INTRA.DIHEDRAL.0>
7.18044

>  <SCORE.INTRA.POLAR>
0

>  <SCORE.INTRA.POLAR.0>
0

>  <SCORE.INTRA.REPUL>
0

>  <SCORE.INTRA.REPUL.0>
0

>  <SCORE.INTRA.SOLV>
-0.907836

>  <SCORE.INTRA.SOLV.lig_0>
-72.0615

>  <SCORE.INTRA.VDW>
0.118931

>  <SCORE.INTRA.VDW.0>
-1.54792

>  <SCORE.INTRA.norm>
-0.170185

>  <SCORE.RESTR>
0

>  <SCORE.RESTR.CAVITY>
0

>  <SCORE.RESTR.norm>
0

>  <SCORE.SYSTEM>
0

>  <SCORE.SYSTEM.CONST>
0

>  <SCORE.SYSTEM.DIHEDRAL>
0

>  <SCORE.SYSTEM.SOLV>
0

>  <SCORE.SYSTEM.norm>
0

>  <SCORE.heavy>
22

>  <SCORE.norm>
-0.540879

>  <RMSD>
6.457

$$$$
lig.pdb
 OpenBabel11021811523D
libRbt.so/2013.1/901 2013/11/27
 22 23  0  0  0  0  0  0  0  0999 V2000
   13.9252   -9.7025   27.4136 C   0  0  1  0  0  0  0  0  0  0  0  0
   15.9145  -10.4783   26.1139 C   0  0  1  0  0  0  0  0  0  0  0  0
   15.2239  -11.7771   25.3891 C   0  0  1  0  0  0  0  0  0  0  0  0
   16.4113  -12.7644   24.9303 C   0  0  2  0  0  0  0  0  0  0  0  0
   13.0332   -8.4416   27.8117 C   0  0  1  0  0  0  0  0  0  0  0  0
   13.8516   -7.4519   28.7294 C   0  0  2  0  0  0  0  0  0  0  0  0
   14.2507   -8.2270   30.0793 C   0  0  1  0  0  0  0  0  0  0  0  0
   15.2192   -9.4801   29.7379 C   0  0  1  0  0  0  0  0  0  0  0  0
   15.6666  -10.2848   30.9896 C   0  0  0  0  0  0  0  0  0  0  0  0
   17.3039  -11.9795   23.8489 C   0  0  1  0  0  0  0  0  0  0  0  0
   17.9525  -10.7043   24.5918 C   0  0  0  0  0  0  0  0  0  0  0  0
   16.8176   -9.7220   25.1103 C   0  0  2  0  0  0  0  0  0  0  0  0
   14.9996   -7.3653   31.0003 F   0  0  0  0  0  0  0  0  0  0  0  0
   12.5971   -7.8061   26.4829 N   0  0  0  0  0  0  0  0  0  0  0  0
   16.4707   -9.5539   31.8992 N   0  0  0  0  0  0  0  0  0  0  0  0
   18.4396  -12.8391   23.3879 N   0  0  0  0  0  0  0  0  0  0  0  0
   17.3914   -8.5701   25.7996 N   0  0  0  0  0  0  0  0  0  0  0  0
   14.9641   -9.5261   26.5350 O   0  0  0  0  0  0  0  0  0  0  0  0
   14.3725  -12.4756   26.4007 O   0  0  0  0  0  0  0  0  0  0  0  0
   15.8351  -13.8659   24.3138 O   0  0  0  0  0  0  0  0  0  0  0  0
   13.1466   -6.5480   28.9960 O   0  0  0  0  0  0  0  0  0  0  0  0
   14.4380  -10.3913   28.7191 O   0  0  0  0  0  0  0  0  0  0  0  0
  1  5  1  0  0  0  0
  1 18  1  6  0  0  0
  2 18  1  6  0  0  0
  2  3  1  0  0  0  0
  2 12  1  0  0  0  0
  3 19  1  1  0  0  0
  3  4  1  0  0  0  0
  4 20  1  6  0  0  0
  4 10  1  0  0  0  0
  5  6  1  0  0  0  0
  5 14  1  6  0  0  0
  6 21  1  1  0  0  0
  7 13  1  1  0  0  0
  7  6  1  0  0  0  0
  8  9  1  1  0  0  0
  8  7  1  0  0  0  0
 10 16  1  1  0  0  0
 11 10  1  0  0  0  0
 12 17  1  1  0  0  0
 12 11  1  0  0  0  0
 15  9  1  0  0  0  0
 22  8  1  0  0  0  0
 22  1  1  0  0  0  0
M  END
>  <CHROM.1>
175.98140642,59.17386901,-64.29109583,15.34755793,-9.97385246,27.25762906
2.09739351,-0.83423240,1.34048132

>  <Name>
lig.pdb

>  <RI>
0

>  <Rbt.Current_Directory>
/home/itssahil/PROJECTS/Mol_Feturizer/New_Systems/rnas/5bxk

>  <Rbt.Executable>
rbdock ($Id: //depot/dev/client3/rdock/2013.1/src/exe/rbdock.cxx#4 $)

>  <Rbt.Library>
libRbt.so (2013.1, Build901 2013/11/27)

>  <Rbt.Parameter_File>
/export/apps/rDock/src/rDock_2013.1_src/data/scripts/dock_solv.prm

>  <Rbt.Receptor>
prm/pocket_docking_7.prm

>  <SCORE>
-11.716

>  <SCORE.INTER>
-7.90222

>  <SCORE.INTER.CONST>
1

>  <SCORE.INTER.POLAR>
0

>  <SCORE.INTER.ROT>
3

>  <SCORE.INTER.SOLV>
16.8833

>  <SCORE.INTER.VDW>
-16.4959

>  <SCORE.INTER.norm>
-0.359192

>  <SCORE.INTRA>
-3.81374

>  <SCORE.INTRA.DIHEDRAL>
-6.89977

>  <SCORE.INTRA.DIHEDRAL.0>
7.18044

>  <SCORE.INTRA.POLAR>
0

>  <SCORE.INTRA.POLAR.0>
0

>  <SCORE.INTRA.REPUL>
0

>  <SCORE.INTRA.REPUL.0>
0

>  <SCORE.INTRA.SOLV>
-0.935915

>  <SCORE.INTRA.SOLV.lig_0>
-72.0615

>  <SCORE.INTRA.VDW>
0.104104

>  <SCORE.INTRA.VDW.0>
-1.54792

>  <SCORE.INTRA.norm>
-0.173352

>  <SCORE.RESTR>
0

>  <SCORE.RESTR.CAVITY>
0

>  <SCORE.RESTR.norm>
0

>  <SCORE.SYSTEM>
0

>  <SCORE.SYSTEM.CONST>
0

>  <SCORE.SYSTEM.DIHEDRAL>
0

>  <SCORE.SYSTEM.SOLV>
0

>  <SCORE.SYSTEM.norm>
0

>  <SCORE.heavy>
22

>  <SCORE.norm>
-0.532543

>  <RMSD>
6.460

$$$$
lig.pdb
 OpenBabel11021811523D
libRbt.so/2013.1/901 2013/11/27
 22 23  0  0  0  0  0  0  0  0999 V2000
   19.4755  -13.0907   24.5320 C   0  0  1  0  0  0  0  0  0  0  0  0
   17.3287  -12.1052   25.3495 C   0  0  1  0  0  0  0  0  0  0  0  0
   17.6040  -10.4987   25.1688 C   0  0  1  0  0  0  0  0  0  0  0  0
   16.6222   -9.7217   26.1823 C   0  0  2  0  0  0  0  0  0  0  0  0
   20.1838  -13.8393   23.3146 C   0  0  1  0  0  0  0  0  0  0  0  0
   19.7957  -15.3692   23.3041 C   0  0  2  0  0  0  0  0  0  0  0  0
   20.3190  -16.0333   24.6707 C   0  0  1  0  0  0  0  0  0  0  0  0
   19.5753  -15.3561   25.9408 C   0  0  1  0  0  0  0  0  0  0  0  0
   20.0128  -15.9462   27.3100 C   0  0  0  0  0  0  0  0  0  0  0  0
   15.1122  -10.0434   25.7368 C   0  0  1  0  0  0  0  0  0  0  0  0
   14.8838  -11.6293   25.9129 C   0  0  0  0  0  0  0  0  0  0  0  0
   15.8674  -12.4444   24.9694 C   0  0  2  0  0  0  0  0  0  0  0  0
   20.0147  -17.4670   24.7302 F   0  0  0  0  0  0  0  0  0  0  0  0
   19.7290  -13.0959   22.0497 N   0  0  0  0  0  0  0  0  0  0  0  0
   19.7295  -17.3253   27.4709 N   0  0  0  0  0  0  0  0  0  0  0  0
   14.1425   -9.3597   26.6499 N   0  0  0  0  0  0  0  0  0  0  0  0
   15.6819  -13.8833   25.1312 N   0  0  0  0  0  0  0  0  0  0  0  0
   18.1192  -12.8892   24.4848 O   0  0  0  0  0  0  0  0  0  0  0  0
   19.0219  -10.2238   25.5565 O   0  0  0  0  0  0  0  0  0  0  0  0
   16.8476   -8.3606   26.0342 O   0  0  0  0  0  0  0  0  0  0  0  0
   20.3481  -15.8706   22.3937 O   0  0  0  0  0  0  0  0  0  0  0  0
   19.8647  -13.8105   25.8633 O   0  0  0  0  0  0  0  0  0  0  0  0
  1  5  1  0  0  0  0
  1 18  1  6  0  0  0
  2 18  1  6  0  0  0
  2  3  1  0  0  0  0
  2 12  1  0  0  0  0
  3 19  1  1  0  0  0
  3  4  1  0  0  0  0
  4 20  1  6  0  0  0
  4 10  1  0  0  0  0
  5  6  1  0  0  0  0
  5 14  1  6  0  0  0
  6 21  1  6  0  0  0
  7 13  1  6  0  0  0
  7  6  1  0  0  0  0
  8  9  1  1  0  0  0
  8  7  1  0  0  0  0
 10 16  1  1  0  0  0
 11 10  1  0  0  0  0
 12 17  1  1  0  0  0
 12 11  1  0  0  0  0
 15  9  1  0  0  0  0
 22  8  1  0  0  0  0
 22  1  1  0  0  0  0
M  END
>  <CHROM.1>
-170.70468341,69.60268126,-61.90184315,18.24417025,-13.15720160,25.11752053
-0.64655889,0.80139704,-0.57657025

>  <Name>
lig.pdb

>  <RI>
0

>  <Rbt.Current_Directory>
/home/itssahil/PROJECTS/Mol_Feturizer/New_Systems/rnas/5bxk

>  <Rbt.Executable>
rbdock ($Id: //depot/dev/client3/rdock/2013.1/src/exe/rbdock.cxx#4 $)

>  <Rbt.Library>
libRbt.so (2013.1, Build901 2013/11/27)

>  <Rbt.Parameter_File>
/export/apps/rDock/src/rDock_2013.1_src/data/scripts/dock_solv.prm

>  <Rbt.Receptor>
prm/pocket_docking_8.prm

>  <SCORE>
-10.8735

>  <SCORE.INTER>
-7.50883

>  <SCORE.INTER.CONST>
1

>  <SCORE.INTER.POLAR>
0

>  <SCORE.INTER.ROT>
3

>  <SCORE.INTER.SOLV>
18.1919

>  <SCORE.INTER.VDW>
-16.6699

>  <SCORE.INTER.norm>
-0.341311

>  <SCORE.INTRA>
-3.36471

>  <SCORE.INTRA.DIHEDRAL>
-6.18438

>  <SCORE.INTRA.DIHEDRAL.0>
7.18044

>  <SCORE.INTRA.POLAR>
0

>  <SCORE.INTRA.POLAR.0>
0

>  <SCORE.INTRA.REPUL>
0

>  <SCORE.INTRA.REPUL.0>
0

>  <SCORE.INTRA.SOLV>
-0.672678

>  <SCORE.INTRA.SOLV.lig_0>
-72.0615

>  <SCORE.INTRA.VDW>
0.0638209

>  <SCORE.INTRA.VDW.0>
-1.54792

>  <SCORE.INTRA.norm>
-0.152941

>  <SCORE.RESTR>
0

>  <SCORE.RESTR.CAVITY>
0

>  <SCORE.RESTR.norm>
0

>  <SCORE.SYSTEM>
0

>  <SCORE.SYSTEM.CONST>
0

>  <SCORE.SYSTEM.DIHEDRAL>
0

>  <SCORE.SYSTEM.SOLV>
0

>  <SCORE.SYSTEM.norm>
0

>  <SCORE.heavy>
22

>  <SCORE.norm>
-0.494252

>  <RMSD>
6.481

$$$$
lig.pdb
 OpenBabel11021811523D
libRbt.so/2013.1/901 2013/11/27
 22 23  0  0  0  0  0  0  0  0999 V2000
   13.6922   -9.1556   27.4703 C   0  0  1  0  0  0  0  0  0  0  0  0
   15.6479  -10.0273   26.1803 C   0  0  1  0  0  0  0  0  0  0  0  0
   14.9614  -11.4037   25.6115 C   0  0  1  0  0  0  0  0  0  0  0  0
   16.1537  -12.4114   25.2138 C   0  0  2  0  0  0  0  0  0  0  0  0
   12.7475   -7.8958   27.7244 C   0  0  1  0  0  0  0  0  0  0  0  0
   13.5408   -6.7490   28.4637 C   0  0  2  0  0  0  0  0  0  0  0  0
   14.0232   -7.3069   29.8915 C   0  0  1  0  0  0  0  0  0  0  0  0
   15.0457   -8.5473   29.6894 C   0  0  1  0  0  0  0  0  0  0  0  0
   15.5747   -9.1459   31.0222 C   0  0  0  0  0  0  0  0  0  0  0  0
   16.9956  -11.7234   24.0306 C   0  0  1  0  0  0  0  0  0  0  0  0
   17.6411  -10.3694   24.6211 C   0  0  0  0  0  0  0  0  0  0  0  0
   16.5033   -9.3597   25.0770 C   0  0  2  0  0  0  0  0  0  0  0  0
   14.7540   -6.2894   30.6545 F   0  0  0  0  0  0  0  0  0  0  0  0
   12.2363   -7.4748   26.3383 N   0  0  0  0  0  0  0  0  0  0  0  0
   16.5751  -10.1368   30.8628 N   0  0  0  0  0  0  0  0  0  0  0  0
   18.1336  -12.6052   23.6197 N   0  0  0  0  0  0  0  0  0  0  0  0
   17.0749   -8.1351   25.6289 N   0  0  0  0  0  0  0  0  0  0  0  0
   14.6920   -9.0542   26.5361 O   0  0  0  0  0  0  0  0  0  0  0  0
   14.1566  -12.0121   26.7153 O   0  0  0  0  0  0  0  0  0  0  0  0
   15.5810  -13.5788   24.7293 O   0  0  0  0  0  0  0  0  0  0  0  0
   12.7975   -5.8516   28.6298 O   0  0  0  0  0  0  0  0  0  0  0  0
   14.2822   -9.6290   28.8377 O   0  0  0  0  0  0  0  0  0  0  0  0
  1  5  1  0  0  0  0
  1 18  1  6  0  0  0
  2 18  1  6  0  0  0
  2  3  1  0  0  0  0
  2 12  1  0  0  0  0
  3 19  1  1  0  0  0
  3  4  1  0  0  0  0
  4 20  1  6  0  0  0
  4 10  1  0  0  0  0
  5  6  1  0  0  0  0
  5 14  1  6  0  0  0
  6 21  1  1  0  0  0
  7 13  1  6  0  0  0
  7  6  1  0  0  0  0
  8  9  1  1  0  0  0
  8  7  1  0  0  0  0
 10 16  1  1  0  0  0
 11 10  1  0  0  0  0
 12 17  1  1  0  0  0
 12 11  1  0  0  0  0
 15  9  1  0  0  0  0
 22  8  1  0  0  0  0
 22  1  1  0  0  0  0
M  END
>  <CHROM.1>
178.50162136,59.79917651,-173.71352181,15.10190589,-9.46076163,27.22187131
2.17500228,-0.88880682,1.29962237

>  <Name>
lig.pdb

>  <RI>
0

>  <Rbt.Current_Directory>
/home/itssahil/PROJECTS/Mol_Feturizer/New_Systems/rnas/5bxk

>  <Rbt.Executable>
rbdock ($Id: //depot/dev/client3/rdock/2013.1/src/exe/rbdock.cxx#4 $)

>  <Rbt.Library>
libRbt.so (2013.1, Build901 2013/11/27)

>  <Rbt.Parameter_File>
/export/apps/rDock/src/rDock_2013.1_src/data/scripts/dock_solv.prm

>  <Rbt.Receptor>
prm/pocket_docking_5.prm

>  <SCORE>
-10.4591

>  <SCORE.INTER>
-6.1516

>  <SCORE.INTER.CONST>
1

>  <SCORE.INTER.POLAR>
0

>  <SCORE.INTER.ROT>
3

>  <SCORE.INTER.SOLV>
18.8069

>  <SCORE.INTER.VDW>
-15.97

>  <SCORE.INTER.norm>
-0.279618

>  <SCORE.INTRA>
-4.30747

>  <SCORE.INTRA.DIHEDRAL>
-6.8912

>  <SCORE.INTRA.DIHEDRAL.0>
7.18044

>  <SCORE.INTRA.POLAR>
0

>  <SCORE.INTRA.POLAR.0>
0

>  <SCORE.INTRA.REPUL>
0

>  <SCORE.INTRA.REPUL.0>
0

>  <SCORE.INTRA.SOLV>
-1.87974

>  <SCORE.INTRA.SOLV.lig_0>
-72.0615

>  <SCORE.INTRA.VDW>
0.0780047

>  <SCORE.INTRA.VDW.0>
-1.54792

>  <SCORE.INTRA.norm>
-0.195794

>  <SCORE.RESTR>
0

>  <SCORE.RESTR.CAVITY>
0

>  <SCORE.RESTR.norm>
0

>  <SCORE.SYSTEM>
0

>  <SCORE.SYSTEM.CONST>
0

>  <SCORE.SYSTEM.DIHEDRAL>
0

>  <SCORE.SYSTEM.SOLV>
0

>  <SCORE.SYSTEM.norm>
0

>  <SCORE.heavy>
22

>  <SCORE.norm>
-0.475412

>  <RMSD>
6.483

$$$$
lig.pdb
 OpenBabel11021811523D
libRbt.so/2013.1/901 2013/11/27
 22 23  0  0  0  0  0  0  0  0999 V2000
   19.4631  -13.0647   24.5519 C   0  0  1  0  0  0  0  0  0  0  0  0
   17.3038  -12.0906   25.3501 C   0  0  1  0  0  0  0  0  0  0  0  0
   17.5557  -10.4845   25.1354 C   0  0  1  0  0  0  0  0  0  0  0  0
   16.5642   -9.7006   26.1342 C   0  0  2  0  0  0  0  0  0  0  0  0
   20.1849  -13.8029   23.3361 C   0  0  1  0  0  0  0  0  0  0  0  0
   19.8171  -15.3378   23.3232 C   0  0  2  0  0  0  0  0  0  0  0  0
   20.3449  -15.9961   24.6908 C   0  0  1  0  0  0  0  0  0  0  0  0
   19.5884  -15.3298   25.9592 C   0  0  1  0  0  0  0  0  0  0  0  0
   20.0295  -15.9151   27.3293 C   0  0  0  0  0  0  0  0  0  0  0  0
   15.0584  -10.0532   25.6980 C   0  0  1  0  0  0  0  0  0  0  0  0
   14.8532  -11.6383   25.9077 C   0  0  0  0  0  0  0  0  0  0  0  0
   15.8471  -12.4586   24.9797 C   0  0  2  0  0  0  0  0  0  0  0  0
   20.0593  -17.4337   24.7483 F   0  0  0  0  0  0  0  0  0  0  0  0
   19.7242  -13.0645   22.0704 N   0  0  0  0  0  0  0  0  0  0  0  0
   19.7583  -17.2967   27.4906 N   0  0  0  0  0  0  0  0  0  0  0  0
   14.0802   -9.3646   26.5983 N   0  0  0  0  0  0  0  0  0  0  0  0
   15.6826  -13.8964   25.1719 N   0  0  0  0  0  0  0  0  0  0  0  0
   18.1044  -12.8811   24.5007 O   0  0  0  0  0  0  0  0  0  0  0  0
   18.9701  -10.1812   25.5149 O   0  0  0  0  0  0  0  0  0  0  0  0
   16.7698   -8.3398   25.9573 O   0  0  0  0  0  0  0  0  0  0  0  0
   20.3788  -15.8311   22.4141 O   0  0  0  0  0  0  0  0  0  0  0  0
   19.8576  -13.7805   25.8838 O   0  0  0  0  0  0  0  0  0  0  0  0
  1  5  1  0  0  0  0
  1 18  1  6  0  0  0
  2 18  1  6  0  0  0
  2  3  1  0  0  0  0
  2 12  1  0  0  0  0
  3 19  1  1  0  0  0
  3  4  1  0  0  0  0
  4 20  1  6  0  0  0
  4 10  1  0  0  0  0
  5  6  1  0  0  0  0
  5 14  1  6  0  0  0
  6 21  1  6  0  0  0
  7 13  1  6  0  0  0
  7  6  1  0  0  0  0
  8  9  1  1  0  0  0
  8  7  1  0  0  0  0
 10 16  1  1  0  0  0
 11 10  1  0  0  0  0
 12 17  1  1  0  0  0
 12 11  1  0  0  0  0
 15  9  1  0  0  0  0
 22  8  1  0  0  0  0
 22  1  1  0  0  0  0
M  END
>  <CHROM.1>
-169.55143100,69.78576738,-62.17599516,18.23189730,-13.13750384,25.11698486
-0.64675090,0.78487592,-0.57906705

>  <Name>
lig.pdb

>  <RI>
0

>  <Rbt.Current_Directory>
/home/itssahil/PROJECTS/Mol_Feturizer/New_Systems/rnas/5bxk

>  <Rbt.Executable>
rbdock ($Id: //depot/dev/client3/rdock/2013.1/src/exe/rbdock.cxx#4 $)

>  <Rbt.Library>
libRbt.so (2013.1, Build901 2013/11/27)

>  <Rbt.Parameter_File>
/export/apps/rDock/src/rDock_2013.1_src/data/scripts/dock_solv.prm

>  <Rbt.Receptor>
prm/pocket_docking_8.prm

>  <SCORE>
-10.8918

>  <SCORE.INTER>
-7.59737

>  <SCORE.INTER.CONST>
1

>  <SCORE.INTER.POLAR>
0

>  <SCORE.INTER.ROT>
3

>  <SCORE.INTER.SOLV>
18.6846

>  <SCORE.INTER.VDW>
-16.8931

>  <SCORE.INTER.norm>
-0.345335

>  <SCORE.INTRA>
-3.29439

>  <SCORE.INTRA.DIHEDRAL>
-6.06022

>  <SCORE.INTRA.DIHEDRAL.0>
7.18044

>  <SCORE.INTRA.POLAR>
0

>  <SCORE.INTRA.POLAR.0>
0

>  <SCORE.INTRA.REPUL>
0

>  <SCORE.INTRA.REPUL.0>
0

>  <SCORE.INTRA.SOLV>
-0.648577

>  <SCORE.INTRA.SOLV.lig_0>
-72.0615

>  <SCORE.INTRA.VDW>
0.060011

>  <SCORE.INTRA.VDW.0>
-1.54792

>  <SCORE.INTRA.norm>
-0.149745

>  <SCORE.RESTR>
0

>  <SCORE.RESTR.CAVITY>
0

>  <SCORE.RESTR.norm>
0

>  <SCORE.SYSTEM>
0

>  <SCORE.SYSTEM.CONST>
0

>  <SCORE.SYSTEM.DIHEDRAL>
0

>  <SCORE.SYSTEM.SOLV>
0

>  <SCORE.SYSTEM.norm>
0

>  <SCORE.heavy>
22

>  <SCORE.norm>
-0.49508

>  <RMSD>
6.485

$$$$
lig.pdb
 OpenBabel11021811523D
libRbt.so/2013.1/901 2013/11/27
 22 23  0  0  0  0  0  0  0  0999 V2000
   13.4881   -8.9331   27.1873 C   0  0  1  0  0  0  0  0  0  0  0  0
   15.5481   -9.8356   26.0962 C   0  0  1  0  0  0  0  0  0  0  0  0
   14.9024  -11.2512   25.5782 C   0  0  1  0  0  0  0  0  0  0  0  0
   16.1214  -12.2676   25.3023 C   0  0  2  0  0  0  0  0  0  0  0  0
   12.5571   -7.6505   27.3664 C   0  0  1  0  0  0  0  0  0  0  0  0
   13.3117   -6.5275   28.1792 C   0  0  2  0  0  0  0  0  0  0  0  0
   13.6539   -7.1035   29.6398 C   0  0  1  0  0  0  0  0  0  0  0  0
   14.6584   -8.3690   29.5194 C   0  0  1  0  0  0  0  0  0  0  0  0
   15.0542   -8.9865   30.8893 C   0  0  0  0  0  0  0  0  0  0  0  0
   17.0166  -11.6426   24.1233 C   0  0  1  0  0  0  0  0  0  0  0  0
   17.6204  -10.2485   24.6622 C   0  0  0  0  0  0  0  0  0  0  0  0
   16.4528   -9.2260   24.9986 C   0  0  2  0  0  0  0  0  0  0  0  0
   14.3410   -6.1084   30.4699 F   0  0  0  0  0  0  0  0  0  0  0  0
   12.1791   -7.2107   25.9439 N   0  0  0  0  0  0  0  0  0  0  0  0
   16.0375  -10.0040   30.8108 N   0  0  0  0  0  0  0  0  0  0  0  0
   18.1810  -12.5348   23.8240 N   0  0  0  0  0  0  0  0  0  0  0  0
   16.9859   -7.9641   25.5033 N   0  0  0  0  0  0  0  0  0  0  0  0
   14.5676   -8.8535   26.3441 O   0  0  0  0  0  0  0  0  0  0  0  0
   14.0478  -11.8011   26.6752 O   0  0  0  0  0  0  0  0  0  0  0  0
   15.5834  -13.4683   24.8614 O   0  0  0  0  0  0  0  0  0  0  0  0
   12.5797   -5.6120   28.2858 O   0  0  0  0  0  0  0  0  0  0  0  0
   13.9448   -9.4271   28.5978 O   0  0  0  0  0  0  0  0  0  0  0  0
  1  5  1  0  0  0  0
  1 18  1  6  0  0  0
  2 18  1  6  0  0  0
  2  3  1  0  0  0  0
  2 12  1  0  0  0  0
  3 19  1  1  0  0  0
  3  4  1  0  0  0  0
  4 20  1  6  0  0  0
  4 10  1  0  0  0  0
  5  6  1  0  0  0  0
  5 14  1  6  0  0  0
  6 21  1  1  0  0  0
  7 13  1  1  0  0  0
  7  6  1  0  0  0  0
  8  9  1  1  0  0  0
  8  7  1  0  0  0  0
 10 16  1  1  0  0  0
 11 10  1  0  0  0  0
 12 17  1  1  0  0  0
 12 11  1  0  0  0  0
 15  9  1  0  0  0  0
 22  8  1  0  0  0  0
 22  1  1  0  0  0  0
M  END
>  <CHROM.1>
176.46231154,56.57861387,-173.82925163,14.91749666,-9.28577542,27.09860644
2.41898995,-0.99172359,1.51970013

>  <Name>
lig.pdb

>  <RI>
0

>  <Rbt.Current_Directory>
/home/itssahil/PROJECTS/Mol_Feturizer/New_Systems/rnas/5bxk

>  <Rbt.Executable>
rbdock ($Id: //depot/dev/client3/rdock/2013.1/src/exe/rbdock.cxx#4 $)

>  <Rbt.Library>
libRbt.so (2013.1, Build901 2013/11/27)

>  <Rbt.Parameter_File>
/export/apps/rDock/src/rDock_2013.1_src/data/scripts/dock_solv.prm

>  <Rbt.Receptor>
prm/pocket_docking_7.prm

>  <SCORE>
-10.8035

>  <SCORE.INTER>
-6.57696

>  <SCORE.INTER.CONST>
1

>  <SCORE.INTER.POLAR>
0

>  <SCORE.INTER.ROT>
3

>  <SCORE.INTER.SOLV>
17.5876

>  <SCORE.INTER.VDW>
-15.8472

>  <SCORE.INTER.norm>
-0.298953

>  <SCORE.INTRA>
-4.22653

>  <SCORE.INTRA.DIHEDRAL>
-6.79031

>  <SCORE.INTRA.DIHEDRAL.0>
7.18044

>  <SCORE.INTRA.POLAR>
0

>  <SCORE.INTRA.POLAR.0>
0

>  <SCORE.INTRA.REPUL>
0

>  <SCORE.INTRA.REPUL.0>
0

>  <SCORE.INTRA.SOLV>
-1.88321

>  <SCORE.INTRA.SOLV.lig_0>
-72.0615

>  <SCORE.INTRA.VDW>
0.110229

>  <SCORE.INTRA.VDW.0>
-1.54792

>  <SCORE.INTRA.norm>
-0.192115

>  <SCORE.RESTR>
0

>  <SCORE.RESTR.CAVITY>
0

>  <SCORE.RESTR.norm>
0

>  <SCORE.SYSTEM>
0

>  <SCORE.SYSTEM.CONST>
0

>  <SCORE.SYSTEM.DIHEDRAL>
0

>  <SCORE.SYSTEM.SOLV>
0

>  <SCORE.SYSTEM.norm>
0

>  <SCORE.heavy>
22

>  <SCORE.norm>
-0.491068

>  <RMSD>
6.494

$$$$
lig.pdb
 OpenBabel11021811523D
libRbt.so/2013.1/901 2013/11/27
 22 23  0  0  0  0  0  0  0  0999 V2000
   13.7436   -9.2066   27.5451 C   0  0  1  0  0  0  0  0  0  0  0  0
   15.6611  -10.0944   26.2097 C   0  0  1  0  0  0  0  0  0  0  0  0
   14.9558  -11.4473   25.6085 C   0  0  1  0  0  0  0  0  0  0  0  0
   16.1340  -12.4637   25.1917 C   0  0  2  0  0  0  0  0  0  0  0  0
   12.7876   -7.9538   27.7912 C   0  0  1  0  0  0  0  0  0  0  0  0
   13.5823   -6.7781   28.4823 C   0  0  2  0  0  0  0  0  0  0  0  0
   14.1069   -7.2936   29.9111 C   0  0  1  0  0  0  0  0  0  0  0  0
   15.1416   -8.5247   29.7147 C   0  0  1  0  0  0  0  0  0  0  0  0
   15.7111   -9.0826   31.0484 C   0  0  0  0  0  0  0  0  0  0  0  0
   16.9899  -11.7624   24.0266 C   0  0  1  0  0  0  0  0  0  0  0  0
   17.6539  -10.4318   24.6488 C   0  0  0  0  0  0  0  0  0  0  0  0
   16.5299   -9.4154   25.1239 C   0  0  2  0  0  0  0  0  0  0  0  0
   14.8416   -6.2476   30.6306 F   0  0  0  0  0  0  0  0  0  0  0  0
   12.2371   -7.5745   26.4081 N   0  0  0  0  0  0  0  0  0  0  0  0
   16.7669  -10.0145   30.8901 N   0  0  0  0  0  0  0  0  0  0  0  0
   18.1158  -12.6519   23.5993 N   0  0  0  0  0  0  0  0  0  0  0  0
   17.1182   -8.2121   25.7046 N   0  0  0  0  0  0  0  0  0  0  0  0
   14.7189   -9.1151   26.5844 O   0  0  0  0  0  0  0  0  0  0  0  0
   14.1385  -12.0678   26.6962 O   0  0  0  0  0  0  0  0  0  0  0  0
   15.5453  -13.6113   24.6798 O   0  0  0  0  0  0  0  0  0  0  0  0
   12.8306   -5.8870   28.6444 O   0  0  0  0  0  0  0  0  0  0  0  0
   14.3731   -9.6376   28.9089 O   0  0  0  0  0  0  0  0  0  0  0  0
  1  5  1  0  0  0  0
  1 18  1  6  0  0  0
  2 18  1  6  0  0  0
  2  3  1  0  0  0  0
  2 12  1  0  0  0  0
  3 19  1  1  0  0  0
  3  4  1  0  0  0  0
  4 20  1  6  0  0  0
  4 10  1  0  0  0  0
  5  6  1  0  0  0  0
  5 14  1  6  0  0  0
  6 21  1  1  0  0  0
  7 13  1  6  0  0  0
  7  6  1  0  0  0  0
  8  9  1  1  0  0  0
  8  7  1  0  0  0  0
 10 16  1  1  0  0  0
 11 10  1  0  0  0  0
 12 17  1  1  0  0  0
 12 11  1  0  0  0  0
 15  9  1  0  0  0  0
 22  8  1  0  0  0  0
 22  1  1  0  0  0  0
M  END
>  <CHROM.1>
179.99436425,62.21209622,-170.73530142,15.14196571,-9.48752043,27.24348221
2.07436526,-0.78746651,1.17862079

>  <Name>
lig.pdb

>  <RI>
0

>  <Rbt.Current_Directory>
/home/itssahil/PROJECTS/Mol_Feturizer/New_Systems/rnas/5bxk

>  <Rbt.Executable>
rbdock ($Id: //depot/dev/client3/rdock/2013.1/src/exe/rbdock.cxx#4 $)

>  <Rbt.Library>
libRbt.so (2013.1, Build901 2013/11/27)

>  <Rbt.Parameter_File>
/export/apps/rDock/src/rDock_2013.1_src/data/scripts/dock_solv.prm

>  <Rbt.Receptor>
prm/pocket_docking_8.prm

>  <SCORE>
-10.2526

>  <SCORE.INTER>
-6.04149

>  <SCORE.INTER.CONST>
1

>  <SCORE.INTER.POLAR>
0

>  <SCORE.INTER.ROT>
3

>  <SCORE.INTER.SOLV>
18.4186

>  <SCORE.INTER.VDW>
-15.7672

>  <SCORE.INTER.norm>
-0.274613

>  <SCORE.INTRA>
-4.21113

>  <SCORE.INTRA.DIHEDRAL>
-6.71459

>  <SCORE.INTRA.DIHEDRAL.0>
7.18044

>  <SCORE.INTRA.POLAR>
0

>  <SCORE.INTRA.POLAR.0>
0

>  <SCORE.INTRA.REPUL>
0

>  <SCORE.INTRA.REPUL.0>
0

>  <SCORE.INTRA.SOLV>
-1.86349

>  <SCORE.INTRA.SOLV.lig_0>
-72.0615

>  <SCORE.INTRA.VDW>
0.0779138

>  <SCORE.INTRA.VDW.0>
-1.54792

>  <SCORE.INTRA.norm>
-0.191415

>  <SCORE.RESTR>
0

>  <SCORE.RESTR.CAVITY>
0

>  <SCORE.RESTR.norm>
0

>  <SCORE.SYSTEM>
0

>  <SCORE.SYSTEM.CONST>
0

>  <SCORE.SYSTEM.DIHEDRAL>
0

>  <SCORE.SYSTEM.SOLV>
0

>  <SCORE.SYSTEM.norm>
0

>  <SCORE.heavy>
22

>  <SCORE.norm>
-0.466028

>  <RMSD>
6.494

$$$$
lig.pdb
 OpenBabel11021811523D
libRbt.so/2013.1/901 2013/11/27
 22 23  0  0  0  0  0  0  0  0999 V2000
   13.4888   -8.8906   27.2409 C   0  0  1  0  0  0  0  0  0  0  0  0
   15.5631   -9.7991   26.1824 C   0  0  1  0  0  0  0  0  0  0  0  0
   14.9085  -11.2173   25.6829 C   0  0  1  0  0  0  0  0  0  0  0  0
   16.1215  -12.2423   25.4125 C   0  0  2  0  0  0  0  0  0  0  0  0
   12.5609   -7.6043   27.4094 C   0  0  1  0  0  0  0  0  0  0  0  0
   13.3023   -6.4929   28.2498 C   0  0  2  0  0  0  0  0  0  0  0  0
   13.6065   -7.0837   29.7129 C   0  0  1  0  0  0  0  0  0  0  0  0
   14.6066   -8.3538   29.6050 C   0  0  1  0  0  0  0  0  0  0  0  0
   14.9664   -8.9857   30.9782 C   0  0  0  0  0  0  0  0  0  0  0  0
   17.0139  -11.6344   24.2226 C   0  0  1  0  0  0  0  0  0  0  0  0
   17.6267  -10.2374   24.7433 C   0  0  0  0  0  0  0  0  0  0  0  0
   16.4655   -9.2058   25.0740 C   0  0  2  0  0  0  0  0  0  0  0  0
   14.2793   -6.0998   30.5678 F   0  0  0  0  0  0  0  0  0  0  0  0
   12.2191   -7.1499   25.9823 N   0  0  0  0  0  0  0  0  0  0  0  0
   15.9346  -10.0183   30.9121 N   0  0  0  0  0  0  0  0  0  0  0  0
   18.1727  -12.5353   23.9276 N   0  0  0  0  0  0  0  0  0  0  0  0
   17.0068   -7.9410   25.5624 N   0  0  0  0  0  0  0  0  0  0  0  0
   14.5884   -8.8098   26.4242 O   0  0  0  0  0  0  0  0  0  0  0  0
   14.0565  -11.7511   26.7899 O   0  0  0  0  0  0  0  0  0  0  0  0
   15.5758  -13.4452   24.9873 O   0  0  0  0  0  0  0  0  0  0  0  0
   12.5730   -5.5742   28.3472 O   0  0  0  0  0  0  0  0  0  0  0  0
   13.9092   -9.3997   28.6573 O   0  0  0  0  0  0  0  0  0  0  0  0
  1  5  1  0  0  0  0
  1 18  1  6  0  0  0
  2 18  1  6  0  0  0
  2  3  1  0  0  0  0
  2 12  1  0  0  0  0
  3 19  1  1  0  0  0
  3  4  1  0  0  0  0
  4 20  1  6  0  0  0
  4 10  1  0  0  0  0
  5  6  1  0  0  0  0
  5 14  1  6  0  0  0
  6 21  1  1  0  0  0
  7 13  1  1  0  0  0
  7  6  1  0  0  0  0
  8  9  1  1  0  0  0
  8  7  1  0  0  0  0
 10 16  1  1  0  0  0
 11 10  1  0  0  0  0
 12 17  1  1  0  0  0
 12 11  1  0  0  0  0
 15  9  1  0  0  0  0
 22  8  1  0  0  0  0
 22  1  1  0  0  0  0
M  END
>  <CHROM.1>
177.02415668,54.29970100,-174.50063748,14.90378359,-9.26059440,27.18153433
2.49568859,-1.02177806,1.60530698

>  <Name>
lig.pdb

>  <RI>
0

>  <Rbt.Current_Directory>
/home/itssahil/PROJECTS/Mol_Feturizer/New_Systems/rnas/5bxk

>  <Rbt.Executable>
rbdock ($Id: //depot/dev/client3/rdock/2013.1/src/exe/rbdock.cxx#4 $)

>  <Rbt.Library>
libRbt.so (2013.1, Build901 2013/11/27)

>  <Rbt.Parameter_File>
/export/apps/rDock/src/rDock_2013.1_src/data/scripts/dock_solv.prm

>  <Rbt.Receptor>
prm/pocket_docking_7.prm

>  <SCORE>
-10.7817

>  <SCORE.INTER>
-6.60447

>  <SCORE.INTER.CONST>
1

>  <SCORE.INTER.POLAR>
0

>  <SCORE.INTER.ROT>
3

>  <SCORE.INTER.SOLV>
16.6771

>  <SCORE.INTER.VDW>
-15.562

>  <SCORE.INTER.norm>
-0.300203

>  <SCORE.INTRA>
-4.17719

>  <SCORE.INTRA.DIHEDRAL>
-6.7341

>  <SCORE.INTRA.DIHEDRAL.0>
7.18044

>  <SCORE.INTRA.POLAR>
0

>  <SCORE.INTRA.POLAR.0>
0

>  <SCORE.INTRA.REPUL>
0

>  <SCORE.INTRA.REPUL.0>
0

>  <SCORE.INTRA.SOLV>
-1.86184

>  <SCORE.INTRA.SOLV.lig_0>
-72.0615

>  <SCORE.INTRA.VDW>
0.120782

>  <SCORE.INTRA.VDW.0>
-1.54792

>  <SCORE.INTRA.norm>
-0.189872

>  <SCORE.RESTR>
0

>  <SCORE.RESTR.CAVITY>
0

>  <SCORE.RESTR.norm>
0

>  <SCORE.SYSTEM>
0

>  <SCORE.SYSTEM.CONST>
0

>  <SCORE.SYSTEM.DIHEDRAL>
0

>  <SCORE.SYSTEM.SOLV>
0

>  <SCORE.SYSTEM.norm>
0

>  <SCORE.heavy>
22

>  <SCORE.norm>
-0.490075

>  <RMSD>
6.498

$$$$
lig.pdb
 OpenBabel11021811523D
libRbt.so/2013.1/901 2013/11/27
 22 23  0  0  0  0  0  0  0  0999 V2000
   13.4330   -8.9023   27.1762 C   0  0  1  0  0  0  0  0  0  0  0  0
   15.5028   -9.8093   26.1077 C   0  0  1  0  0  0  0  0  0  0  0  0
   14.8830  -11.2549   25.6439 C   0  0  1  0  0  0  0  0  0  0  0  0
   16.1204  -12.2578   25.4027 C   0  0  2  0  0  0  0  0  0  0  0  0
   12.5152   -7.6104   27.3571 C   0  0  1  0  0  0  0  0  0  0  0  0
   13.2881   -6.4895   28.1556 C   0  0  2  0  0  0  0  0  0  0  0  0
   13.6400   -7.0601   29.6161 C   0  0  1  0  0  0  0  0  0  0  0  0
   14.6319   -8.3352   29.4929 C   0  0  1  0  0  0  0  0  0  0  0  0
   15.0361   -8.9483   30.8623 C   0  0  0  0  0  0  0  0  0  0  0  0
   17.0015  -11.6602   24.1992 C   0  0  1  0  0  0  0  0  0  0  0  0
   17.5800  -10.2361   24.6847 C   0  0  0  0  0  0  0  0  0  0  0  0
   16.3940   -9.2238   24.9861 C   0  0  2  0  0  0  0  0  0  0  0  0
   14.3444   -6.0664   30.4333 F   0  0  0  0  0  0  0  0  0  0  0  0
   12.1267   -7.1755   25.9360 N   0  0  0  0  0  0  0  0  0  0  0  0
   16.0052   -9.9790   30.7793 N   0  0  0  0  0  0  0  0  0  0  0  0
   18.1819  -12.5409   23.9302 N   0  0  0  0  0  0  0  0  0  0  0  0
   16.9041   -7.9344   25.4425 N   0  0  0  0  0  0  0  0  0  0  0  0
   14.5045   -8.8373   26.3216 O   0  0  0  0  0  0  0  0  0  0  0  0
   14.0408  -11.7798   26.7626 O   0  0  0  0  0  0  0  0  0  0  0  0
   15.6043  -13.4839   25.0078 O   0  0  0  0  0  0  0  0  0  0  0  0
   12.5653   -5.5669   28.2643 O   0  0  0  0  0  0  0  0  0  0  0  0
   13.8996   -9.3922   28.5848 O   0  0  0  0  0  0  0  0  0  0  0  0
  1  5  1  0  0  0  0
  1 18  1  6  0  0  0
  2 18  1  6  0  0  0
  2  3  1  0  0  0  0
  2 12  1  0  0  0  0
  3 19  1  1  0  0  0
  3  4  1  0  0  0  0
  4 20  1  6  0  0  0
  4 10  1  0  0  0  0
  5  6  1  0  0  0  0
  5 14  1  6  0  0  0
  6 21  1  1  0  0  0
  7 13  1  1  0  0  0
  7  6  1  0  0  0  0
  8  9  1  1  0  0  0
  8  7  1  0  0  0  0
 10 16  1  1  0  0  0
 11 10  1  0  0  0  0
 12 17  1  1  0  0  0
 12 11  1  0  0  0  0
 15  9  1  0  0  0  0
 22  8  1  0  0  0  0
 22  1  1  0  0  0  0
M  END
>  <CHROM.1>
173.77626614,57.03641208,-174.08942755,14.88963580,-9.26355160,27.11157338
2.45734639,-1.00325581,1.54113027

>  <Name>
lig.pdb

>  <RI>
0

>  <Rbt.Current_Directory>
/home/itssahil/PROJECTS/Mol_Feturizer/New_Systems/rnas/5bxk

>  <Rbt.Executable>
rbdock ($Id: //depot/dev/client3/rdock/2013.1/src/exe/rbdock.cxx#4 $)

>  <Rbt.Library>
libRbt.so (2013.1, Build901 2013/11/27)

>  <Rbt.Parameter_File>
/export/apps/rDock/src/rDock_2013.1_src/data/scripts/dock_solv.prm

>  <Rbt.Receptor>
prm/pocket_docking_6.prm

>  <SCORE>
-10.8554

>  <SCORE.INTER>
-6.65949

>  <SCORE.INTER.CONST>
1

>  <SCORE.INTER.POLAR>
0

>  <SCORE.INTER.ROT>
3

>  <SCORE.INTER.SOLV>
17.3741

>  <SCORE.INTER.VDW>
-15.831

>  <SCORE.INTER.norm>
-0.302704

>  <SCORE.INTRA>
-4.19594

>  <SCORE.INTRA.DIHEDRAL>
-6.6928

>  <SCORE.INTRA.DIHEDRAL.0>
7.18044

>  <SCORE.INTRA.POLAR>
0

>  <SCORE.INTRA.POLAR.0>
0

>  <SCORE.INTRA.REPUL>
0

>  <SCORE.INTRA.REPUL.0>
0

>  <SCORE.INTRA.SOLV>
-1.86571

>  <SCORE.INTRA.SOLV.lig_0>
-72.0615

>  <SCORE.INTRA.VDW>
0.0833148

>  <SCORE.INTRA.VDW.0>
-1.54792

>  <SCORE.INTRA.norm>
-0.190725

>  <SCORE.RESTR>
0

>  <SCORE.RESTR.CAVITY>
0

>  <SCORE.RESTR.norm>
0

>  <SCORE.SYSTEM>
0

>  <SCORE.SYSTEM.CONST>
0

>  <SCORE.SYSTEM.DIHEDRAL>
0

>  <SCORE.SYSTEM.SOLV>
0

>  <SCORE.SYSTEM.norm>
0

>  <SCORE.heavy>
22

>  <SCORE.norm>
-0.493429

>  <RMSD>
6.499

$$$$
lig.pdb
 OpenBabel11021811523D
libRbt.so/2013.1/901 2013/11/27
 22 23  0  0  0  0  0  0  0  0999 V2000
   13.5943   -8.9234   27.3759 C   0  0  1  0  0  0  0  0  0  0  0  0
   15.5805   -9.8599   26.1815 C   0  0  1  0  0  0  0  0  0  0  0  0
   14.9141  -11.2555   25.6362 C   0  0  1  0  0  0  0  0  0  0  0  0
   16.1187  -12.2798   25.3283 C   0  0  2  0  0  0  0  0  0  0  0  0
   12.6512   -7.6486   27.5481 C   0  0  1  0  0  0  0  0  0  0  0  0
   13.4350   -6.4702   28.2469 C   0  0  2  0  0  0  0  0  0  0  0  0
   13.8847   -6.9595   29.7100 C   0  0  1  0  0  0  0  0  0  0  0  0
   14.9046   -8.2126   29.5904 C   0  0  1  0  0  0  0  0  0  0  0  0
   15.4027   -8.7474   30.9617 C   0  0  0  0  0  0  0  0  0  0  0  0
   17.0129  -11.6388   24.1572 C   0  0  1  0  0  0  0  0  0  0  0  0
   17.6373  -10.2646   24.7232 C   0  0  0  0  0  0  0  0  0  0  0  0
   16.4847   -9.2362   25.0914 C   0  0  2  0  0  0  0  0  0  0  0  0
   14.6049   -5.9089   30.4375 F   0  0  0  0  0  0  0  0  0  0  0  0
   12.1710   -7.2940   26.1327 N   0  0  0  0  0  0  0  0  0  0  0  0
   16.3481   -9.7992   30.8718 N   0  0  0  0  0  0  0  0  0  0  0  0
   18.1642  -12.5377   23.8290 N   0  0  0  0  0  0  0  0  0  0  0  0
   17.0365   -7.9926   25.6207 N   0  0  0  0  0  0  0  0  0  0  0  0
   14.6137   -8.8721   26.4590 O   0  0  0  0  0  0  0  0  0  0  0  0
   14.0606  -11.8200   26.7267 O   0  0  0  0  0  0  0  0  0  0  0  0
   15.5631  -13.4636   24.8642 O   0  0  0  0  0  0  0  0  0  0  0  0
   12.6931   -5.5627   28.3533 O   0  0  0  0  0  0  0  0  0  0  0  0
   14.1532   -9.3316   28.7769 O   0  0  0  0  0  0  0  0  0  0  0  0
  1  5  1  0  0  0  0
  1 18  1  6  0  0  0
  2 18  1  6  0  0  0
  2  3  1  0  0  0  0
  2 12  1  0  0  0  0
  3 19  1  1  0  0  0
  3  4  1  0  0  0  0
  4 20  1  6  0  0  0
  4 10  1  0  0  0  0
  5  6  1  0  0  0  0
  5 14  1  6  0  0  0
  6 21  1  1  0  0  0
  7 13  1  6  0  0  0
  7  6  1  0  0  0  0
  8  9  1  1  0  0  0
  8  7  1  0  0  0  0
 10 16  1  1  0  0  0
 11 10  1  0  0  0  0
 12 17  1  1  0  0  0
 12 11  1  0  0  0  0
 15  9  1  0  0  0  0
 22  8  1  0  0  0  0
 22  1  1  0  0  0  0
M  END
>  <CHROM.1>
177.74879888,61.54814012,-176.94581617,15.01946539,-9.24056553,27.17685015
2.20701892,-0.88661553,1.27097088

>  <Name>
lig.pdb

>  <RI>
0

>  <Rbt.Current_Directory>
/home/itssahil/PROJECTS/Mol_Feturizer/New_Systems/rnas/5bxk

>  <Rbt.Executable>
rbdock ($Id: //depot/dev/client3/rdock/2013.1/src/exe/rbdock.cxx#4 $)

>  <Rbt.Library>
libRbt.so (2013.1, Build901 2013/11/27)

>  <Rbt.Parameter_File>
/export/apps/rDock/src/rDock_2013.1_src/data/scripts/dock_solv.prm

>  <Rbt.Receptor>
prm/pocket_docking_8.prm

>  <SCORE>
-10.4144

>  <SCORE.INTER>
-6.07484

>  <SCORE.INTER.CONST>
1

>  <SCORE.INTER.POLAR>
0

>  <SCORE.INTER.ROT>
3

>  <SCORE.INTER.SOLV>
16.5333

>  <SCORE.INTER.VDW>
-15.161

>  <SCORE.INTER.norm>
-0.276129

>  <SCORE.INTRA>
-4.33958

>  <SCORE.INTRA.DIHEDRAL>
-6.97485

>  <SCORE.INTRA.DIHEDRAL.0>
7.18044

>  <SCORE.INTRA.POLAR>
0

>  <SCORE.INTRA.POLAR.0>
0

>  <SCORE.INTRA.REPUL>
0

>  <SCORE.INTRA.REPUL.0>
0

>  <SCORE.INTRA.SOLV>
-1.82131

>  <SCORE.INTRA.SOLV.lig_0>
-72.0615

>  <SCORE.INTRA.VDW>
0.0584957

>  <SCORE.INTRA.VDW.0>
-1.54792

>  <SCORE.INTRA.norm>
-0.197254

>  <SCORE.RESTR>
0

>  <SCORE.RESTR.CAVITY>
0

>  <SCORE.RESTR.norm>
0

>  <SCORE.SYSTEM>
0

>  <SCORE.SYSTEM.CONST>
0

>  <SCORE.SYSTEM.DIHEDRAL>
0

>  <SCORE.SYSTEM.SOLV>
0

>  <SCORE.SYSTEM.norm>
0

>  <SCORE.heavy>
22

>  <SCORE.norm>
-0.473383

>  <RMSD>
6.499

$$$$
lig.pdb
 OpenBabel11021811523D
libRbt.so/2013.1/901 2013/11/27
 22 23  0  0  0  0  0  0  0  0999 V2000
   13.5703   -8.9424   27.2722 C   0  0  1  0  0  0  0  0  0  0  0  0
   15.5464   -9.9123   26.0878 C   0  0  1  0  0  0  0  0  0  0  0  0
   14.8943  -11.3499   25.6435 C   0  0  1  0  0  0  0  0  0  0  0  0
   16.1108  -12.3691   25.3671 C   0  0  2  0  0  0  0  0  0  0  0  0
   12.6645   -7.6421   27.4531 C   0  0  1  0  0  0  0  0  0  0  0  0
   13.4951   -6.4768   28.1190 C   0  0  2  0  0  0  0  0  0  0  0  0
   13.9685   -6.9617   29.5761 C   0  0  1  0  0  0  0  0  0  0  0  0
   14.9530   -8.2418   29.4457 C   0  0  1  0  0  0  0  0  0  0  0  0
   15.4713   -8.7745   30.8102 C   0  0  0  0  0  0  0  0  0  0  0  0
   16.9642  -11.7836   24.1379 C   0  0  1  0  0  0  0  0  0  0  0  0
   17.5753  -10.3670   24.6051 C   0  0  0  0  0  0  0  0  0  0  0  0
   16.4120   -9.3391   24.9402 C   0  0  2  0  0  0  0  0  0  0  0  0
   14.7330   -5.9222   30.2736 F   0  0  0  0  0  0  0  0  0  0  0  0
   12.1583   -7.2904   26.0460 N   0  0  0  0  0  0  0  0  0  0  0  0
   16.4047   -9.8359   30.7083 N   0  0  0  0  0  0  0  0  0  0  0  0
   18.1246  -12.6799   23.8352 N   0  0  0  0  0  0  0  0  0  0  0  0
   16.9522   -8.0563   25.3804 N   0  0  0  0  0  0  0  0  0  0  0  0
   14.5676   -8.9271   26.3300 O   0  0  0  0  0  0  0  0  0  0  0  0
   14.0783  -11.8631   26.7867 O   0  0  0  0  0  0  0  0  0  0  0  0
   15.5673  -13.5884   24.9885 O   0  0  0  0  0  0  0  0  0  0  0  0
   12.7793   -5.5494   28.2333 O   0  0  0  0  0  0  0  0  0  0  0  0
   14.1534   -9.3498   28.6636 O   0  0  0  0  0  0  0  0  0  0  0  0
  1  5  1  0  0  0  0
  1 18  1  6  0  0  0
  2 18  1  6  0  0  0
  2  3  1  0  0  0  0
  2 12  1  0  0  0  0
  3 19  1  1  0  0  0
  3  4  1  0  0  0  0
  4 20  1  6  0  0  0
  4 10  1  0  0  0  0
  5  6  1  0  0  0  0
  5 14  1  6  0  0  0
  6 21  1  1  0  0  0
  7 13  1  6  0  0  0
  7  6  1  0  0  0  0
  8  9  1  1  0  0  0
  8  7  1  0  0  0  0
 10 16  1  1  0  0  0
 11 10  1  0  0  0  0
 12 17  1  1  0  0  0
 12 11  1  0  0  0  0
 15  9  1  0  0  0  0
 22  8  1  0  0  0  0
 22  1  1  0  0  0  0
M  END
>  <CHROM.1>
174.04184229,61.44077440,-175.91554796,15.02708027,-9.29167887,27.08988933
2.24007033,-0.93509406,1.28624702

>  <Name>
lig.pdb

>  <RI>
0

>  <Rbt.Current_Directory>
/home/itssahil/PROJECTS/Mol_Feturizer/New_Systems/rnas/5bxk

>  <Rbt.Executable>
rbdock ($Id: //depot/dev/client3/rdock/2013.1/src/exe/rbdock.cxx#4 $)

>  <Rbt.Library>
libRbt.so (2013.1, Build901 2013/11/27)

>  <Rbt.Parameter_File>
/export/apps/rDock/src/rDock_2013.1_src/data/scripts/dock_solv.prm

>  <Rbt.Receptor>
prm/pocket_docking_5.prm

>  <SCORE>
-10.3795

>  <SCORE.INTER>
-6.10951

>  <SCORE.INTER.CONST>
1

>  <SCORE.INTER.POLAR>
0

>  <SCORE.INTER.ROT>
3

>  <SCORE.INTER.SOLV>
17.45

>  <SCORE.INTER.VDW>
-15.4897

>  <SCORE.INTER.norm>
-0.277705

>  <SCORE.INTRA>
-4.27001

>  <SCORE.INTRA.DIHEDRAL>
-6.80654

>  <SCORE.INTRA.DIHEDRAL.0>
7.18044

>  <SCORE.INTRA.POLAR>
0

>  <SCORE.INTRA.POLAR.0>
0

>  <SCORE.INTRA.REPUL>
0

>  <SCORE.INTRA.REPUL.0>
0

>  <SCORE.INTRA.SOLV>
-1.83741

>  <SCORE.INTRA.SOLV.lig_0>
-72.0615

>  <SCORE.INTRA.VDW>
0.0519635

>  <SCORE.INTRA.VDW.0>
-1.54792

>  <SCORE.INTRA.norm>
-0.194091

>  <SCORE.RESTR>
0

>  <SCORE.RESTR.CAVITY>
0

>  <SCORE.RESTR.norm>
0

>  <SCORE.SYSTEM>
0

>  <SCORE.SYSTEM.CONST>
0

>  <SCORE.SYSTEM.DIHEDRAL>
0

>  <SCORE.SYSTEM.SOLV>
0

>  <SCORE.SYSTEM.norm>
0

>  <SCORE.heavy>
22

>  <SCORE.norm>
-0.471796

>  <RMSD>
6.506

$$$$
lig.pdb
 OpenBabel11021811523D
libRbt.so/2013.1/901 2013/11/27
 22 23  0  0  0  0  0  0  0  0999 V2000
   13.4045   -8.6993   27.0153 C   0  0  1  0  0  0  0  0  0  0  0  0
   15.4982   -9.6873   26.0726 C   0  0  1  0  0  0  0  0  0  0  0  0
   14.8393  -11.1228   25.6319 C   0  0  1  0  0  0  0  0  0  0  0  0
   16.0456  -12.1754   25.4535 C   0  0  2  0  0  0  0  0  0  0  0  0
   12.5365   -7.3684   27.1549 C   0  0  1  0  0  0  0  0  0  0  0  0
   13.3067   -6.2927   28.0157 C   0  0  2  0  0  0  0  0  0  0  0  0
   13.5382   -6.8942   29.4878 C   0  0  1  0  0  0  0  0  0  0  0  0
   14.4772   -8.2123   29.4108 C   0  0  1  0  0  0  0  0  0  0  0  0
   14.7648   -8.8577   30.7947 C   0  0  0  0  0  0  0  0  0  0  0  0
   16.9801  -11.6442   24.2591 C   0  0  1  0  0  0  0  0  0  0  0  0
   17.5964  -10.2281   24.7210 C   0  0  0  0  0  0  0  0  0  0  0  0
   16.4401   -9.1662   24.9607 C   0  0  2  0  0  0  0  0  0  0  0  0
   14.2332   -5.9426   30.3612 F   0  0  0  0  0  0  0  0  0  0  0  0
   12.2598   -6.9013   25.7179 N   0  0  0  0  0  0  0  0  0  0  0  0
   15.6570   -9.9579   30.7538 N   0  0  0  0  0  0  0  0  0  0  0  0
   18.1347  -12.5735   24.0479 N   0  0  0  0  0  0  0  0  0  0  0  0
   16.9840   -7.8831   25.3953 N   0  0  0  0  0  0  0  0  0  0  0  0
   14.5303   -8.6748   26.2314 O   0  0  0  0  0  0  0  0  0  0  0  0
   13.9486  -11.5851   26.7406 O   0  0  0  0  0  0  0  0  0  0  0  0
   15.4964  -13.3932   25.0784 O   0  0  0  0  0  0  0  0  0  0  0  0
   12.6210   -5.3390   28.0906 O   0  0  0  0  0  0  0  0  0  0  0  0
   13.7573   -9.2249   28.4440 O   0  0  0  0  0  0  0  0  0  0  0  0
  1  5  1  0  0  0  0
  1 18  1  6  0  0  0
  2 18  1  6  0  0  0
  2  3  1  0  0  0  0
  2 12  1  0  0  0  0
  3 19  1  1  0  0  0
  3  4  1  0  0  0  0
  4 20  1  6  0  0  0
  4 10  1  0  0  0  0
  5  6  1  0  0  0  0
  5 14  1  6  0  0  0
  6 21  1  1  0  0  0
  7 13  1  1  0  0  0
  7  6  1  0  0  0  0
  8  9  1  1  0  0  0
  8  7  1  0  0  0  0
 10 16  1  1  0  0  0
 11 10  1  0  0  0  0
 12 17  1  1  0  0  0
 12 11  1  0  0  0  0
 15  9  1  0  0  0  0
 22  8  1  0  0  0  0
 22  1  1  0  0  0  0
M  END
>  <CHROM.1>
173.47947564,54.07937037,-175.97843785,14.83572193,-9.13882797,27.05183297
2.65929970,-1.07135332,1.73928744

>  <Name>
lig.pdb

>  <RI>
0

>  <Rbt.Current_Directory>
/home/itssahil/PROJECTS/Mol_Feturizer/New_Systems/rnas/5bxk

>  <Rbt.Executable>
rbdock ($Id: //depot/dev/client3/rdock/2013.1/src/exe/rbdock.cxx#4 $)

>  <Rbt.Library>
libRbt.so (2013.1, Build901 2013/11/27)

>  <Rbt.Parameter_File>
/export/apps/rDock/src/rDock_2013.1_src/data/scripts/dock_solv.prm

>  <Rbt.Receptor>
prm/pocket_docking_8.prm

>  <SCORE>
-11.0086

>  <SCORE.INTER>
-6.91851

>  <SCORE.INTER.CONST>
1

>  <SCORE.INTER.POLAR>
0

>  <SCORE.INTER.ROT>
3

>  <SCORE.INTER.SOLV>
16.1488

>  <SCORE.INTER.VDW>
-15.5953

>  <SCORE.INTER.norm>
-0.314478

>  <SCORE.INTRA>
-4.09007

>  <SCORE.INTRA.DIHEDRAL>
-6.61428

>  <SCORE.INTRA.DIHEDRAL.0>
7.18044

>  <SCORE.INTRA.POLAR>
0

>  <SCORE.INTRA.POLAR.0>
0

>  <SCORE.INTRA.REPUL>
0

>  <SCORE.INTRA.REPUL.0>
0

>  <SCORE.INTRA.SOLV>
-1.8161

>  <SCORE.INTRA.SOLV.lig_0>
-72.0615

>  <SCORE.INTRA.VDW>
0.125115

>  <SCORE.INTRA.VDW.0>
-1.54792

>  <SCORE.INTRA.norm>
-0.185912

>  <SCORE.RESTR>
0

>  <SCORE.RESTR.CAVITY>
0

>  <SCORE.RESTR.norm>
0

>  <SCORE.SYSTEM>
0

>  <SCORE.SYSTEM.CONST>
0

>  <SCORE.SYSTEM.DIHEDRAL>
0

>  <SCORE.SYSTEM.SOLV>
0

>  <SCORE.SYSTEM.norm>
0

>  <SCORE.heavy>
22

>  <SCORE.norm>
-0.50039

>  <RMSD>
6.507

$$$$
lig.pdb
 OpenBabel11021811523D
libRbt.so/2013.1/901 2013/11/27
 22 23  0  0  0  0  0  0  0  0999 V2000
   13.6865   -9.4779   27.2588 C   0  0  1  0  0  0  0  0  0  0  0  0
   15.6929  -10.2715   25.9966 C   0  0  1  0  0  0  0  0  0  0  0  0
   15.0896  -11.7033   25.4721 C   0  0  1  0  0  0  0  0  0  0  0  0
   16.3397  -12.6507   25.1051 C   0  0  2  0  0  0  0  0  0  0  0  0
   12.8352   -8.1908   27.6620 C   0  0  1  0  0  0  0  0  0  0  0  0
   13.7148   -7.1867   28.5043 C   0  0  2  0  0  0  0  0  0  0  0  0
   14.1722   -7.9259   29.8558 C   0  0  1  0  0  0  0  0  0  0  0  0
   15.1029   -9.2047   29.5050 C   0  0  1  0  0  0  0  0  0  0  0  0
   15.6029   -9.9774   30.7570 C   0  0  0  0  0  0  0  0  0  0  0  0
   17.1405  -11.9516   23.9001 C   0  0  1  0  0  0  0  0  0  0  0  0
   17.7042  -10.5439   24.4470 C   0  0  0  0  0  0  0  0  0  0  0  0
   16.5083   -9.5895   24.8720 C   0  0  2  0  0  0  0  0  0  0  0  0
   14.9807   -7.0484   30.7090 F   0  0  0  0  0  0  0  0  0  0  0  0
   12.3399   -7.5898   26.3379 N   0  0  0  0  0  0  0  0  0  0  0  0
   14.5706  -10.4414   31.6097 N   0  0  0  0  0  0  0  0  0  0  0  0
   18.3290  -12.7771   23.5160 N   0  0  0  0  0  0  0  0  0  0  0  0
   17.0060   -8.3164   25.3846 N   0  0  0  0  0  0  0  0  0  0  0  0
   14.6808   -9.3459   26.3226 O   0  0  0  0  0  0  0  0  0  0  0  0
   14.3212  -12.3232   26.5954 O   0  0  0  0  0  0  0  0  0  0  0  0
   15.8375  -13.8646   24.6582 O   0  0  0  0  0  0  0  0  0  0  0  0
   13.0380   -6.2634   28.7779 O   0  0  0  0  0  0  0  0  0  0  0  0
   14.2564  -10.1342   28.5574 O   0  0  0  0  0  0  0  0  0  0  0  0
  1  5  1  0  0  0  0
  1 18  1  6  0  0  0
  2 18  1  6  0  0  0
  2  3  1  0  0  0  0
  2 12  1  0  0  0  0
  3 19  1  1  0  0  0
  3  4  1  0  0  0  0
  4 20  1  6  0  0  0
  4 10  1  0  0  0  0
  5  6  1  0  0  0  0
  5 14  1  6  0  0  0
  6 21  1  1  0  0  0
  7 13  1  1  0  0  0
  7  6  1  0  0  0  0
  8  9  1  1  0  0  0
  8  7  1  0  0  0  0
 10 16  1  1  0  0  0
 11 10  1  0  0  0  0
 12 17  1  1  0  0  0
 12 11  1  0  0  0  0
 15  9  1  0  0  0  0
 22  8  1  0  0  0  0
 22  1  1  0  0  0  0
M  END
>  <CHROM.1>
167.72982940,59.66324524,56.76214198,15.11267336,-9.82707406,27.14516882
2.74453429,-1.14300298,2.02633584

>  <Name>
lig.pdb

>  <RI>
0

>  <Rbt.Current_Directory>
/home/itssahil/PROJECTS/Mol_Feturizer/New_Systems/rnas/5bxk

>  <Rbt.Executable>
rbdock ($Id: //depot/dev/client3/rdock/2013.1/src/exe/rbdock.cxx#4 $)

>  <Rbt.Library>
libRbt.so (2013.1, Build901 2013/11/27)

>  <Rbt.Parameter_File>
/export/apps/rDock/src/rDock_2013.1_src/data/scripts/dock_solv.prm

>  <Rbt.Receptor>
prm/pocket_docking_8.prm

>  <SCORE>
-11.4733

>  <SCORE.INTER>
-7.95441

>  <SCORE.INTER.CONST>
1

>  <SCORE.INTER.POLAR>
0

>  <SCORE.INTER.ROT>
3

>  <SCORE.INTER.SOLV>
18.4733

>  <SCORE.INTER.VDW>
-17.0607

>  <SCORE.INTER.norm>
-0.361564

>  <SCORE.INTRA>
-3.51885

>  <SCORE.INTRA.DIHEDRAL>
-6.31632

>  <SCORE.INTRA.DIHEDRAL.0>
7.18044

>  <SCORE.INTRA.POLAR>
0

>  <SCORE.INTRA.POLAR.0>
0

>  <SCORE.INTRA.REPUL>
0

>  <SCORE.INTRA.REPUL.0>
0

>  <SCORE.INTRA.SOLV>
-0.699367

>  <SCORE.INTRA.SOLV.lig_0>
-72.0615

>  <SCORE.INTRA.VDW>
-0.011

>  <SCORE.INTRA.VDW.0>
-1.54792

>  <SCORE.INTRA.norm>
-0.159948

>  <SCORE.RESTR>
0

>  <SCORE.RESTR.CAVITY>
0

>  <SCORE.RESTR.norm>
0

>  <SCORE.SYSTEM>
0

>  <SCORE.SYSTEM.CONST>
0

>  <SCORE.SYSTEM.DIHEDRAL>
0

>  <SCORE.SYSTEM.SOLV>
0

>  <SCORE.SYSTEM.norm>
0

>  <SCORE.heavy>
22

>  <SCORE.norm>
-0.521512

>  <RMSD>
6.508

$$$$
lig.pdb
 OpenBabel11021811523D
libRbt.so/2013.1/901 2013/11/27
 22 23  0  0  0  0  0  0  0  0999 V2000
   13.3850   -8.6001   26.9568 C   0  0  1  0  0  0  0  0  0  0  0  0
   15.4774   -9.6181   26.0437 C   0  0  1  0  0  0  0  0  0  0  0  0
   14.8308  -11.0683   25.6339 C   0  0  1  0  0  0  0  0  0  0  0  0
   16.0440  -12.1197   25.5008 C   0  0  2  0  0  0  0  0  0  0  0  0
   12.5271   -7.2599   27.0659 C   0  0  1  0  0  0  0  0  0  0  0  0
   13.3129   -6.1648   27.8873 C   0  0  2  0  0  0  0  0  0  0  0  0
   13.5552   -6.7246   29.3740 C   0  0  1  0  0  0  0  0  0  0  0  0
   14.4847   -8.0507   29.3264 C   0  0  1  0  0  0  0  0  0  0  0  0
   14.7819   -8.6574   30.7257 C   0  0  0  0  0  0  0  0  0  0  0  0
   16.9921  -11.6171   24.3047 C   0  0  1  0  0  0  0  0  0  0  0  0
   17.5959  -10.1859   24.7356 C   0  0  0  0  0  0  0  0  0  0  0  0
   16.4318   -9.1234   24.9305 C   0  0  2  0  0  0  0  0  0  0  0  0
   14.2651   -5.7526   30.2123 F   0  0  0  0  0  0  0  0  0  0  0  0
   12.2392   -6.8330   25.6187 N   0  0  0  0  0  0  0  0  0  0  0  0
   15.6983   -9.7382   30.7129 N   0  0  0  0  0  0  0  0  0  0  0  0
   18.1536  -12.5464   24.1346 N   0  0  0  0  0  0  0  0  0  0  0  0
   16.9642   -7.8262   25.3368 N   0  0  0  0  0  0  0  0  0  0  0  0
   14.5030   -8.6062   26.1615 O   0  0  0  0  0  0  0  0  0  0  0  0
   13.9273  -11.5042   26.7430 O   0  0  0  0  0  0  0  0  0  0  0  0
   15.5052  -13.3500   25.1521 O   0  0  0  0  0  0  0  0  0  0  0  0
   12.6343   -5.2046   27.9409 O   0  0  0  0  0  0  0  0  0  0  0  0
   13.7486   -9.0862   28.3967 O   0  0  0  0  0  0  0  0  0  0  0  0
  1  5  1  0  0  0  0
  1 18  1  6  0  0  0
  2 18  1  6  0  0  0
  2  3  1  0  0  0  0
  2 12  1  0  0  0  0
  3 19  1  1  0  0  0
  3  4  1  0  0  0  0
  4 20  1  6  0  0  0
  4 10  1  0  0  0  0
  5  6  1  0  0  0  0
  5 14  1  6  0  0  0
  6 21  1  1  0  0  0
  7 13  1  1  0  0  0
  7  6  1  0  0  0  0
  8  9  1  1  0  0  0
  8  7  1  0  0  0  0
 10 16  1  1  0  0  0
 11 10  1  0  0  0  0
 12 17  1  1  0  0  0
 12 11  1  0  0  0  0
 15  9  1  0  0  0  0
 22  8  1  0  0  0  0
 22  1  1  0  0  0  0
M  END
>  <CHROM.1>
172.04341507,55.92550851,-174.13634475,14.83642126,-9.03793657,27.00738702
2.62881292,-1.06279498,1.67120613

>  <Name>
lig.pdb

>  <RI>
0

>  <Rbt.Current_Directory>
/home/itssahil/PROJECTS/Mol_Feturizer/New_Systems/rnas/5bxk

>  <Rbt.Executable>
rbdock ($Id: //depot/dev/client3/rdock/2013.1/src/exe/rbdock.cxx#4 $)

>  <Rbt.Library>
libRbt.so (2013.1, Build901 2013/11/27)

>  <Rbt.Parameter_File>
/export/apps/rDock/src/rDock_2013.1_src/data/scripts/dock_solv.prm

>  <Rbt.Receptor>
prm/pocket_docking_5.prm

>  <SCORE>
-10.8613

>  <SCORE.INTER>
-6.77011

>  <SCORE.INTER.CONST>
1

>  <SCORE.INTER.POLAR>
0

>  <SCORE.INTER.ROT>
3

>  <SCORE.INTER.SOLV>
15.5369

>  <SCORE.INTER.VDW>
-15.2924

>  <SCORE.INTER.norm>
-0.307732

>  <SCORE.INTRA>
-4.09259

>  <SCORE.INTRA.DIHEDRAL>
-6.54238

>  <SCORE.INTRA.DIHEDRAL.0>
7.18044

>  <SCORE.INTRA.POLAR>
0

>  <SCORE.INTRA.POLAR.0>
0

>  <SCORE.INTRA.REPUL>
0

>  <SCORE.INTRA.REPUL.0>
0

>  <SCORE.INTRA.SOLV>
-1.84083

>  <SCORE.INTRA.SOLV.lig_0>
-72.0615

>  <SCORE.INTRA.VDW>
0.0990108

>  <SCORE.INTRA.VDW.0>
-1.54792

>  <SCORE.INTRA.norm>
-0.186027

>  <SCORE.RESTR>
0.0014147

>  <SCORE.RESTR.CAVITY>
0.0014147

>  <SCORE.RESTR.norm>
6.43043e-05

>  <SCORE.SYSTEM>
0

>  <SCORE.SYSTEM.CONST>
0

>  <SCORE.SYSTEM.DIHEDRAL>
0

>  <SCORE.SYSTEM.SOLV>
0

>  <SCORE.SYSTEM.norm>
0

>  <SCORE.heavy>
22

>  <SCORE.norm>
-0.493695

>  <RMSD>
6.509

$$$$
lig.pdb
 OpenBabel11021811523D
libRbt.so/2013.1/901 2013/11/27
 22 23  0  0  0  0  0  0  0  0999 V2000
   13.8364   -9.6669   27.3969 C   0  0  1  0  0  0  0  0  0  0  0  0
   15.8346  -10.4861   26.1381 C   0  0  1  0  0  0  0  0  0  0  0  0
   15.1207  -11.8283   25.5232 C   0  0  1  0  0  0  0  0  0  0  0  0
   16.2928  -12.8381   25.0742 C   0  0  2  0  0  0  0  0  0  0  0  0
   12.9747   -8.3838   27.7908 C   0  0  1  0  0  0  0  0  0  0  0  0
   13.8035   -7.4288   28.7355 C   0  0  2  0  0  0  0  0  0  0  0  0
   14.1516   -8.2294   30.0846 C   0  0  1  0  0  0  0  0  0  0  0  0
   15.0889   -9.5075   29.7490 C   0  0  1  0  0  0  0  0  0  0  0  0
   15.4864  -10.3382   31.0006 C   0  0  0  0  0  0  0  0  0  0  0  0
   17.1341  -12.1176   23.9102 C   0  0  1  0  0  0  0  0  0  0  0  0
   17.8069  -10.7980   24.5462 C   0  0  0  0  0  0  0  0  0  0  0  0
   16.6899   -9.7893   25.0528 C   0  0  2  0  0  0  0  0  0  0  0  0
   14.9070   -7.4002   31.0298 F   0  0  0  0  0  0  0  0  0  0  0  0
   12.5849   -7.7218   26.4605 N   0  0  0  0  0  0  0  0  0  0  0  0
   16.3028   -9.6449   31.9286 N   0  0  0  0  0  0  0  0  0  0  0  0
   18.2538  -13.0004   23.4535 N   0  0  0  0  0  0  0  0  0  0  0  0
   17.2864   -8.5962   25.6462 N   0  0  0  0  0  0  0  0  0  0  0  0
   14.8979   -9.5128   26.5414 O   0  0  0  0  0  0  0  0  0  0  0  0
   14.3170  -12.4667   26.6108 O   0  0  0  0  0  0  0  0  0  0  0  0
   15.6968  -13.9765   24.5506 O   0  0  0  0  0  0  0  0  0  0  0  0
   13.1205   -6.5068   28.9978 O   0  0  0  0  0  0  0  0  0  0  0  0
   14.3017  -10.3842   28.7049 O   0  0  0  0  0  0  0  0  0  0  0  0
  1  5  1  0  0  0  0
  1 18  1  1  0  0  0
  2 18  1  6  0  0  0
  2  3  1  0  0  0  0
  2 12  1  0  0  0  0
  3 19  1  1  0  0  0
  3  4  1  0  0  0  0
  4 20  1  6  0  0  0
  4 10  1  0  0  0  0
  5  6  1  0  0  0  0
  5 14  1  6  0  0  0
  6 21  1  1  0  0  0
  7 13  1  1  0  0  0
  7  6  1  0  0  0  0
  8  9  1  1  0  0  0
  8  7  1  0  0  0  0
 10 16  1  1  0  0  0
 11 10  1  0  0  0  0
 12 17  1  1  0  0  0
 12 11  1  0  0  0  0
 15  9  1  0  0  0  0
 22  8  1  0  0  0  0
 22  1  1  0  0  0  0
M  END
>  <CHROM.1>
175.38279883,53.77641803,-64.80830147,15.24217209,-10.00370981,27.28886493
2.22165735,-0.98088807,1.48160581

>  <Name>
lig.pdb

>  <RI>
0

>  <Rbt.Current_Directory>
/home/itssahil/PROJECTS/Mol_Feturizer/New_Systems/rnas/5bxk

>  <Rbt.Executable>
rbdock ($Id: //depot/dev/client3/rdock/2013.1/src/exe/rbdock.cxx#4 $)

>  <Rbt.Library>
libRbt.so (2013.1, Build901 2013/11/27)

>  <Rbt.Parameter_File>
/export/apps/rDock/src/rDock_2013.1_src/data/scripts/dock_solv.prm

>  <Rbt.Receptor>
prm/pocket_docking_8.prm

>  <SCORE>
-11.7572

>  <SCORE.INTER>
-8.11865

>  <SCORE.INTER.CONST>
1

>  <SCORE.INTER.POLAR>
0

>  <SCORE.INTER.ROT>
3

>  <SCORE.INTER.SOLV>
16.7268

>  <SCORE.INTER.VDW>
-16.588

>  <SCORE.INTER.norm>
-0.36903

>  <SCORE.INTRA>
-3.63855

>  <SCORE.INTRA.DIHEDRAL>
-6.67258

>  <SCORE.INTRA.DIHEDRAL.0>
7.18044

>  <SCORE.INTRA.POLAR>
0

>  <SCORE.INTRA.POLAR.0>
0

>  <SCORE.INTRA.REPUL>
0

>  <SCORE.INTRA.REPUL.0>
0

>  <SCORE.INTRA.SOLV>
-0.902982

>  <SCORE.INTRA.SOLV.lig_0>
-72.0615

>  <SCORE.INTRA.VDW>
0.149225

>  <SCORE.INTRA.VDW.0>
-1.54792

>  <SCORE.INTRA.norm>
-0.165389

>  <SCORE.RESTR>
0

>  <SCORE.RESTR.CAVITY>
0

>  <SCORE.RESTR.norm>
0

>  <SCORE.SYSTEM>
0

>  <SCORE.SYSTEM.CONST>
0

>  <SCORE.SYSTEM.DIHEDRAL>
0

>  <SCORE.SYSTEM.SOLV>
0

>  <SCORE.SYSTEM.norm>
0

>  <SCORE.heavy>
22

>  <SCORE.norm>
-0.534418

>  <RMSD>
6.525

$$$$
lig.pdb
 OpenBabel11021811523D
libRbt.so/2013.1/901 2013/11/27
 22 23  0  0  0  0  0  0  0  0999 V2000
   13.2726   -8.4652   26.8185 C   0  0  1  0  0  0  0  0  0  0  0  0
   15.4152   -9.4958   26.0466 C   0  0  1  0  0  0  0  0  0  0  0  0
   14.7547  -10.9331   25.6142 C   0  0  1  0  0  0  0  0  0  0  0  0
   15.9503  -12.0092   25.5270 C   0  0  2  0  0  0  0  0  0  0  0  0
   12.4402   -7.1083   26.9182 C   0  0  1  0  0  0  0  0  0  0  0  0
   13.1736   -6.0767   27.8613 C   0  0  2  0  0  0  0  0  0  0  0  0
   13.2664   -6.7145   29.3334 C   0  0  1  0  0  0  0  0  0  0  0  0
   14.1649   -8.0622   29.3021 C   0  0  1  0  0  0  0  0  0  0  0  0
   14.3192   -8.7441   30.6898 C   0  0  0  0  0  0  0  0  0  0  0  0
   16.9522  -11.5278   24.3666 C   0  0  1  0  0  0  0  0  0  0  0  0
   17.5687  -10.1086   24.8185 C   0  0  0  0  0  0  0  0  0  0  0  0
   16.4201   -9.0223   24.9692 C   0  0  2  0  0  0  0  0  0  0  0  0
   13.9197   -5.8045   30.2803 F   0  0  0  0  0  0  0  0  0  0  0  0
   12.2952   -6.6039   25.4745 N   0  0  0  0  0  0  0  0  0  0  0  0
   15.2061   -9.8493   30.7039 N   0  0  0  0  0  0  0  0  0  0  0  0
   18.0999  -12.4808   24.2404 N   0  0  0  0  0  0  0  0  0  0  0  0
   16.9634   -7.7356   25.3940 N   0  0  0  0  0  0  0  0  0  0  0  0
   14.4579   -8.4641   26.1274 O   0  0  0  0  0  0  0  0  0  0  0  0
   13.8020  -11.3488   26.6894 O   0  0  0  0  0  0  0  0  0  0  0  0
   15.3998  -13.2288   25.1595 O   0  0  0  0  0  0  0  0  0  0  0  0
   12.5156   -5.1017   27.9026 O   0  0  0  0  0  0  0  0  0  0  0  0
   13.4922   -9.0304   28.2587 O   0  0  0  0  0  0  0  0  0  0  0  0
  1  5  1  0  0  0  0
  1 18  1  1  0  0  0
  2 18  1  6  0  0  0
  2  3  1  0  0  0  0
  2 12  1  0  0  0  0
  3 19  1  1  0  0  0
  3  4  1  0  0  0  0
  4 20  1  6  0  0  0
  4 10  1  0  0  0  0
  5  6  1  0  0  0  0
  5 14  1  6  0  0  0
  6 21  1  1  0  0  0
  7 13  1  1  0  0  0
  7  6  1  0  0  0  0
  8  9  1  1  0  0  0
  8  7  1  0  0  0  0
 10 16  1  1  0  0  0
 11 10  1  0  0  0  0
 12 17  1  1  0  0  0
 12 11  1  0  0  0  0
 15  9  1  0  0  0  0
 22  8  1  0  0  0  0
 22  1  1  0  0  0  0
M  END
>  <CHROM.1>
172.01788255,51.70540096,-174.20984056,14.68722927,-8.96104038,26.98986216
2.89689199,-1.08421603,1.96613122

>  <Name>
lig.pdb

>  <RI>
0

>  <Rbt.Current_Directory>
/home/itssahil/PROJECTS/Mol_Feturizer/New_Systems/rnas/5bxk

>  <Rbt.Executable>
rbdock ($Id: //depot/dev/client3/rdock/2013.1/src/exe/rbdock.cxx#4 $)

>  <Rbt.Library>
libRbt.so (2013.1, Build901 2013/11/27)

>  <Rbt.Parameter_File>
/export/apps/rDock/src/rDock_2013.1_src/data/scripts/dock_solv.prm

>  <Rbt.Receptor>
prm/pocket_docking_6.prm

>  <SCORE>
-11.0371

>  <SCORE.INTER>
-7.13476

>  <SCORE.INTER.CONST>
1

>  <SCORE.INTER.POLAR>
0

>  <SCORE.INTER.ROT>
3

>  <SCORE.INTER.SOLV>
15.0584

>  <SCORE.INTER.VDW>
-15.376

>  <SCORE.INTER.norm>
-0.324307

>  <SCORE.INTRA>
-3.90229

>  <SCORE.INTRA.DIHEDRAL>
-6.29098

>  <SCORE.INTRA.DIHEDRAL.0>
7.18044

>  <SCORE.INTRA.POLAR>
0

>  <SCORE.INTRA.POLAR.0>
0

>  <SCORE.INTRA.REPUL>
0

>  <SCORE.INTRA.REPUL.0>
0

>  <SCORE.INTRA.SOLV>
-1.79746

>  <SCORE.INTRA.SOLV.lig_0>
-72.0615

>  <SCORE.INTRA.VDW>
0.141929

>  <SCORE.INTRA.VDW.0>
-1.54792

>  <SCORE.INTRA.norm>
-0.177377

>  <SCORE.RESTR>
0

>  <SCORE.RESTR.CAVITY>
0

>  <SCORE.RESTR.norm>
0

>  <SCORE.SYSTEM>
0

>  <SCORE.SYSTEM.CONST>
0

>  <SCORE.SYSTEM.DIHEDRAL>
0

>  <SCORE.SYSTEM.SOLV>
0

>  <SCORE.SYSTEM.norm>
0

>  <SCORE.heavy>
22

>  <SCORE.norm>
-0.501684

>  <RMSD>
6.531

$$$$
lig.pdb
 OpenBabel11021811523D
libRbt.so/2013.1/901 2013/11/27
 22 23  0  0  0  0  0  0  0  0999 V2000
   13.3051   -8.4743   26.8925 C   0  0  1  0  0  0  0  0  0  0  0  0
   15.4539   -9.4915   26.1199 C   0  0  1  0  0  0  0  0  0  0  0  0
   14.7874  -10.9065   25.6270 C   0  0  1  0  0  0  0  0  0  0  0  0
   15.9753  -11.9891   25.5164 C   0  0  2  0  0  0  0  0  0  0  0  0
   12.4402   -7.1357   26.9565 C   0  0  1  0  0  0  0  0  0  0  0  0
   13.1303   -6.0751   27.9000 C   0  0  2  0  0  0  0  0  0  0  0  0
   13.2072   -6.6909   29.3823 C   0  0  1  0  0  0  0  0  0  0  0  0
   14.1365   -8.0179   29.3879 C   0  0  1  0  0  0  0  0  0  0  0  0
   14.2776   -8.6775   30.7877 C   0  0  0  0  0  0  0  0  0  0  0  0
   16.9965  -11.4747   24.3875 C   0  0  1  0  0  0  0  0  0  0  0  0
   17.6185  -10.0782   24.8987 C   0  0  0  0  0  0  0  0  0  0  0  0
   16.4770   -8.9881   25.0737 C   0  0  2  0  0  0  0  0  0  0  0  0
   13.8200   -5.7536   30.3297 F   0  0  0  0  0  0  0  0  0  0  0  0
   12.3136   -6.6541   25.5033 N   0  0  0  0  0  0  0  0  0  0  0  0
   15.0776   -9.8471   30.8061 N   0  0  0  0  0  0  0  0  0  0  0  0
   18.1380  -12.4325   24.2418 N   0  0  0  0  0  0  0  0  0  0  0  0
   17.0251   -7.7224   25.5521 N   0  0  0  0  0  0  0  0  0  0  0  0
   14.5041   -8.4551   26.2257 O   0  0  0  0  0  0  0  0  0  0  0  0
   13.8170  -11.3525   26.6738 O   0  0  0  0  0  0  0  0  0  0  0  0
   15.4197  -13.1897   25.0977 O   0  0  0  0  0  0  0  0  0  0  0  0
   12.4497   -5.1150   27.9145 O   0  0  0  0  0  0  0  0  0  0  0  0
   13.5077   -9.0152   28.3445 O   0  0  0  0  0  0  0  0  0  0  0  0
  1  5  1  0  0  0  0
  1 18  1  1  0  0  0
  2 18  1  6  0  0  0
  2  3  1  0  0  0  0
  2 12  1  0  0  0  0
  3 19  1  1  0  0  0
  3  4  1  0  0  0  0
  4 20  1  6  0  0  0
  4 10  1  0  0  0  0
  5  6  1  0  0  0  0
  5 14  1  6  0  0  0
  6 21  1  1  0  0  0
  7 13  1  1  0  0  0
  7  6  1  0  0  0  0
  8  9  1  1  0  0  0
  8  7  1  0  0  0  0
 10 16  1  1  0  0  0
 11 10  1  0  0  0  0
 12 17  1  1  0  0  0
 12 11  1  0  0  0  0
 15  9  1  0  0  0  0
 22  8  1  0  0  0  0
 22  1  1  0  0  0  0
M  END
>  <CHROM.1>
175.71511152,51.17702500,179.42666870,14.68676164,-8.94353559,27.04009369
2.90178395,-1.07673093,1.98372138

>  <Name>
lig.pdb

>  <RI>
0

>  <Rbt.Current_Directory>
/home/itssahil/PROJECTS/Mol_Feturizer/New_Systems/rnas/5bxk

>  <Rbt.Executable>
rbdock ($Id: //depot/dev/client3/rdock/2013.1/src/exe/rbdock.cxx#4 $)

>  <Rbt.Library>
libRbt.so (2013.1, Build901 2013/11/27)

>  <Rbt.Parameter_File>
/export/apps/rDock/src/rDock_2013.1_src/data/scripts/dock_solv.prm

>  <Rbt.Receptor>
prm/pocket_docking_6.prm

>  <SCORE>
-11.2444

>  <SCORE.INTER>
-7.23077

>  <SCORE.INTER.CONST>
1

>  <SCORE.INTER.POLAR>
0

>  <SCORE.INTER.ROT>
3

>  <SCORE.INTER.SOLV>
14.4731

>  <SCORE.INTER.VDW>
-15.2449

>  <SCORE.INTER.norm>
-0.328671

>  <SCORE.INTRA>
-4.0136

>  <SCORE.INTRA.DIHEDRAL>
-6.57973

>  <SCORE.INTRA.DIHEDRAL.0>
7.18044

>  <SCORE.INTRA.POLAR>
0

>  <SCORE.INTRA.POLAR.0>
0

>  <SCORE.INTRA.REPUL>
0

>  <SCORE.INTRA.REPUL.0>
0

>  <SCORE.INTRA.SOLV>
-1.75021

>  <SCORE.INTRA.SOLV.lig_0>
-72.0615

>  <SCORE.INTRA.VDW>
0.15137

>  <SCORE.INTRA.VDW.0>
-1.54792

>  <SCORE.INTRA.norm>
-0.182436

>  <SCORE.RESTR>
0

>  <SCORE.RESTR.CAVITY>
0

>  <SCORE.RESTR.norm>
0

>  <SCORE.SYSTEM>
0

>  <SCORE.SYSTEM.CONST>
0

>  <SCORE.SYSTEM.DIHEDRAL>
0

>  <SCORE.SYSTEM.SOLV>
0

>  <SCORE.SYSTEM.norm>
0

>  <SCORE.heavy>
22

>  <SCORE.norm>
-0.511108

>  <RMSD>
6.534

$$$$
lig.pdb
 OpenBabel11021811523D
libRbt.so/2013.1/901 2013/11/27
 22 23  0  0  0  0  0  0  0  0999 V2000
   13.5102   -8.7250   27.2339 C   0  0  1  0  0  0  0  0  0  0  0  0
   15.4972   -9.7360   26.1033 C   0  0  1  0  0  0  0  0  0  0  0  0
   14.8214  -11.1698   25.6830 C   0  0  1  0  0  0  0  0  0  0  0  0
   16.0206  -12.2158   25.4323 C   0  0  2  0  0  0  0  0  0  0  0  0
   12.6130   -7.4138   27.3756 C   0  0  1  0  0  0  0  0  0  0  0  0
   13.4357   -6.2507   28.0552 C   0  0  2  0  0  0  0  0  0  0  0  0
   13.8604   -6.7265   29.5302 C   0  0  1  0  0  0  0  0  0  0  0  0
   14.8348   -8.0178   29.4411 C   0  0  1  0  0  0  0  0  0  0  0  0
   15.3066   -8.5427   30.8254 C   0  0  0  0  0  0  0  0  0  0  0  0
   16.8903  -11.6693   24.1966 C   0  0  1  0  0  0  0  0  0  0  0  0
   17.5246  -10.2552   24.6400 C   0  0  0  0  0  0  0  0  0  0  0  0
   16.3785   -9.2004   24.9495 C   0  0  2  0  0  0  0  0  0  0  0  0
   14.6147   -5.6883   30.2406 F   0  0  0  0  0  0  0  0  0  0  0  0
   12.1528   -7.0705   25.9508 N   0  0  0  0  0  0  0  0  0  0  0  0
   16.2092   -9.6332   30.7617 N   0  0  0  0  0  0  0  0  0  0  0  0
   18.0357  -12.5919   23.9169 N   0  0  0  0  0  0  0  0  0  0  0  0
   16.9396   -7.9194   25.3682 N   0  0  0  0  0  0  0  0  0  0  0  0
   14.5352   -8.7290   26.3218 O   0  0  0  0  0  0  0  0  0  0  0  0
   13.9908  -11.6464   26.8316 O   0  0  0  0  0  0  0  0  0  0  0  0
   15.4570  -13.4321   25.0740 O   0  0  0  0  0  0  0  0  0  0  0  0
   12.7266   -5.3150   28.1394 O   0  0  0  0  0  0  0  0  0  0  0  0
   14.0473   -9.1250   28.6458 O   0  0  0  0  0  0  0  0  0  0  0  0
  1  5  1  0  0  0  0
  1 18  1  6  0  0  0
  2 18  1  6  0  0  0
  2  3  1  0  0  0  0
  2 12  1  0  0  0  0
  3 19  1  1  0  0  0
  3  4  1  0  0  0  0
  4 20  1  6  0  0  0
  4 10  1  0  0  0  0
  5  6  1  0  0  0  0
  5 14  1  6  0  0  0
  6 21  1  1  0  0  0
  7 13  1  6  0  0  0
  7  6  1  0  0  0  0
  8  9  1  1  0  0  0
  8  7  1  0  0  0  0
 10 16  1  1  0  0  0
 11 10  1  0  0  0  0
 12 17  1  1  0  0  0
 12 11  1  0  0  0  0
 15  9  1  0  0  0  0
 22  8  1  0  0  0  0
 22  1  1  0  0  0  0
M  END
>  <CHROM.1>
175.17465956,59.43114810,-177.20297518,14.94705998,-9.10184575,27.09016526
2.29880261,-0.98052714,1.33763966

>  <Name>
lig.pdb

>  <RI>
0

>  <Rbt.Current_Directory>
/home/itssahil/PROJECTS/Mol_Feturizer/New_Systems/rnas/5bxk

>  <Rbt.Executable>
rbdock ($Id: //depot/dev/client3/rdock/2013.1/src/exe/rbdock.cxx#4 $)

>  <Rbt.Library>
libRbt.so (2013.1, Build901 2013/11/27)

>  <Rbt.Parameter_File>
/export/apps/rDock/src/rDock_2013.1_src/data/scripts/dock_solv.prm

>  <Rbt.Receptor>
prm/pocket_docking_5.prm

>  <SCORE>
-10.5131

>  <SCORE.INTER>
-6.21039

>  <SCORE.INTER.CONST>
1

>  <SCORE.INTER.POLAR>
0

>  <SCORE.INTER.ROT>
3

>  <SCORE.INTER.SOLV>
16.1418

>  <SCORE.INTER.VDW>
-15.1209

>  <SCORE.INTER.norm>
-0.282291

>  <SCORE.INTRA>
-4.30267

>  <SCORE.INTRA.DIHEDRAL>
-6.90457

>  <SCORE.INTRA.DIHEDRAL.0>
7.18044

>  <SCORE.INTRA.POLAR>
0

>  <SCORE.INTRA.POLAR.0>
0

>  <SCORE.INTRA.REPUL>
0

>  <SCORE.INTRA.REPUL.0>
0

>  <SCORE.INTRA.SOLV>
-1.85

>  <SCORE.INTRA.SOLV.lig_0>
-72.0615

>  <SCORE.INTRA.VDW>
0.0746208

>  <SCORE.INTRA.VDW.0>
-1.54792

>  <SCORE.INTRA.norm>
-0.195576

>  <SCORE.RESTR>
0

>  <SCORE.RESTR.CAVITY>
0

>  <SCORE.RESTR.norm>
0

>  <SCORE.SYSTEM>
0

>  <SCORE.SYSTEM.CONST>
0

>  <SCORE.SYSTEM.DIHEDRAL>
0

>  <SCORE.SYSTEM.SOLV>
0

>  <SCORE.SYSTEM.norm>
0

>  <SCORE.heavy>
22

>  <SCORE.norm>
-0.477866

>  <RMSD>
6.538

$$$$
lig.pdb
 OpenBabel11021811523D
libRbt.so/2013.1/901 2013/11/27
 22 23  0  0  0  0  0  0  0  0999 V2000
   13.4511   -8.7885   27.1179 C   0  0  1  0  0  0  0  0  0  0  0  0
   15.4622   -9.7953   26.0268 C   0  0  1  0  0  0  0  0  0  0  0  0
   14.8020  -11.2516   25.6628 C   0  0  1  0  0  0  0  0  0  0  0  0
   16.0129  -12.2896   25.4361 C   0  0  2  0  0  0  0  0  0  0  0  0
   12.5786   -7.4626   27.2753 C   0  0  1  0  0  0  0  0  0  0  0  0
   13.4148   -6.3312   27.9910 C   0  0  2  0  0  0  0  0  0  0  0  0
   13.8088   -6.8467   29.4612 C   0  0  1  0  0  0  0  0  0  0  0  0
   14.7582   -8.1555   29.3578 C   0  0  1  0  0  0  0  0  0  0  0  0
   15.1996   -8.7190   30.7370 C   0  0  0  0  0  0  0  0  0  0  0  0
   16.8632  -11.7745   24.1737 C   0  0  1  0  0  0  0  0  0  0  0  0
   17.4824  -10.3377   24.5619 C   0  0  0  0  0  0  0  0  0  0  0  0
   16.3250   -9.2882   24.8465 C   0  0  2  0  0  0  0  0  0  0  0  0
   14.5737   -5.8394   30.2040 F   0  0  0  0  0  0  0  0  0  0  0  0
   12.1457   -7.0798   25.8520 N   0  0  0  0  0  0  0  0  0  0  0  0
   16.0684   -9.8361   30.6623 N   0  0  0  0  0  0  0  0  0  0  0  0
   18.0184  -12.6909   23.9144 N   0  0  0  0  0  0  0  0  0  0  0  0
   16.8726   -7.9861   25.2152 N   0  0  0  0  0  0  0  0  0  0  0  0
   14.4887   -8.7942   26.2202 O   0  0  0  0  0  0  0  0  0  0  0  0
   13.9890  -11.6993   26.8353 O   0  0  0  0  0  0  0  0  0  0  0  0
   15.4625  -13.5249   25.1255 O   0  0  0  0  0  0  0  0  0  0  0  0
   12.7236   -5.3832   28.0855 O   0  0  0  0  0  0  0  0  0  0  0  0
   13.9599   -9.2292   28.5282 O   0  0  0  0  0  0  0  0  0  0  0  0
  1  5  1  0  0  0  0
  1 18  1  6  0  0  0
  2 18  1  6  0  0  0
  2  3  1  0  0  0  0
  2 12  1  0  0  0  0
  3 19  1  1  0  0  0
  3  4  1  0  0  0  0
  4 20  1  6  0  0  0
  4 10  1  0  0  0  0
  5  6  1  0  0  0  0
  5 14  1  6  0  0  0
  6 21  1  1  0  0  0
  7 13  1  6  0  0  0
  7  6  1  0  0  0  0
  8  9  1  1  0  0  0
  8  7  1  0  0  0  0
 10 16  1  1  0  0  0
 11 10  1  0  0  0  0
 12 17  1  1  0  0  0
 12 11  1  0  0  0  0
 15  9  1  0  0  0  0
 22  8  1  0  0  0  0
 22  1  1  0  0  0  0
M  END
>  <CHROM.1>
172.66426605,57.52921474,-177.91258809,14.90469809,-9.19474016,27.02646121
2.41733305,-1.03735594,1.46474799

>  <Name>
lig.pdb

>  <RI>
0

>  <Rbt.Current_Directory>
/home/itssahil/PROJECTS/Mol_Feturizer/New_Systems/rnas/5bxk

>  <Rbt.Executable>
rbdock ($Id: //depot/dev/client3/rdock/2013.1/src/exe/rbdock.cxx#4 $)

>  <Rbt.Library>
libRbt.so (2013.1, Build901 2013/11/27)

>  <Rbt.Parameter_File>
/export/apps/rDock/src/rDock_2013.1_src/data/scripts/dock_solv.prm

>  <Rbt.Receptor>
prm/pocket_docking_5.prm

>  <SCORE>
-10.7406

>  <SCORE.INTER>
-6.53407

>  <SCORE.INTER.CONST>
1

>  <SCORE.INTER.POLAR>
0

>  <SCORE.INTER.ROT>
3

>  <SCORE.INTER.SOLV>
17.3193

>  <SCORE.INTER.VDW>
-15.7291

>  <SCORE.INTER.norm>
-0.297003

>  <SCORE.INTRA>
-4.2065

>  <SCORE.INTRA.DIHEDRAL>
-6.74624

>  <SCORE.INTRA.DIHEDRAL.0>
7.18044

>  <SCORE.INTRA.POLAR>
0

>  <SCORE.INTRA.POLAR.0>
0

>  <SCORE.INTRA.REPUL>
0

>  <SCORE.INTRA.REPUL.0>
0

>  <SCORE.INTRA.SOLV>
-1.8187

>  <SCORE.INTRA.SOLV.lig_0>
-72.0615

>  <SCORE.INTRA.VDW>
0.0759711

>  <SCORE.INTRA.VDW.0>
-1.54792

>  <SCORE.INTRA.norm>
-0.191205

>  <SCORE.RESTR>
0

>  <SCORE.RESTR.CAVITY>
0

>  <SCORE.RESTR.norm>
0

>  <SCORE.SYSTEM>
0

>  <SCORE.SYSTEM.CONST>
0

>  <SCORE.SYSTEM.DIHEDRAL>
0

>  <SCORE.SYSTEM.SOLV>
0

>  <SCORE.SYSTEM.norm>
0

>  <SCORE.heavy>
22

>  <SCORE.norm>
-0.488208

>  <RMSD>
6.541

$$$$
lig.pdb
 OpenBabel11021811523D
libRbt.so/2013.1/901 2013/11/27
 22 23  0  0  0  0  0  0  0  0999 V2000
   13.6194   -9.3686   27.1488 C   0  0  1  0  0  0  0  0  0  0  0  0
   15.6559  -10.2081   25.9672 C   0  0  1  0  0  0  0  0  0  0  0  0
   15.0301  -11.6482   25.4941 C   0  0  1  0  0  0  0  0  0  0  0  0
   16.2652  -12.6273   25.1610 C   0  0  2  0  0  0  0  0  0  0  0  0
   12.7604   -8.0701   27.4952 C   0  0  1  0  0  0  0  0  0  0  0  0
   13.6069   -7.0624   28.3666 C   0  0  2  0  0  0  0  0  0  0  0  0
   13.9928   -7.7882   29.7473 C   0  0  1  0  0  0  0  0  0  0  0  0
   14.9288   -9.0784   29.4570 C   0  0  1  0  0  0  0  0  0  0  0  0
   15.3618   -9.8392   30.7408 C   0  0  0  0  0  0  0  0  0  0  0  0
   17.0760  -11.9842   23.9317 C   0  0  1  0  0  0  0  0  0  0  0  0
   17.6618  -10.5668   24.4280 C   0  0  0  0  0  0  0  0  0  0  0  0
   16.4810   -9.5794   24.8188 C   0  0  2  0  0  0  0  0  0  0  0  0
   14.7667   -6.9064   30.6277 F   0  0  0  0  0  0  0  0  0  0  0  0
   12.3341   -7.4818   26.1417 N   0  0  0  0  0  0  0  0  0  0  0  0
   14.2857  -10.3128   31.5319 N   0  0  0  0  0  0  0  0  0  0  0  0
   18.2513  -12.8412   23.5772 N   0  0  0  0  0  0  0  0  0  0  0  0
   16.9987   -8.2967   25.2856 N   0  0  0  0  0  0  0  0  0  0  0  0
   14.6585   -9.2559   26.2600 O   0  0  0  0  0  0  0  0  0  0  0  0
   14.2530  -12.2156   26.6389 O   0  0  0  0  0  0  0  0  0  0  0  0
   15.7440  -13.8484   24.7578 O   0  0  0  0  0  0  0  0  0  0  0  0
   12.9254   -6.1306   28.5963 O   0  0  0  0  0  0  0  0  0  0  0  0
   14.1210  -10.0130   28.4811 O   0  0  0  0  0  0  0  0  0  0  0  0
  1  5  1  0  0  0  0
  1 18  1  6  0  0  0
  2 18  1  6  0  0  0
  2  3  1  0  0  0  0
  2 12  1  0  0  0  0
  3 19  1  1  0  0  0
  3  4  1  0  0  0  0
  4 20  1  6  0  0  0
  4 10  1  0  0  0  0
  5  6  1  0  0  0  0
  5 14  1  6  0  0  0
  6 21  1  1  0  0  0
  7 13  1  1  0  0  0
  7  6  1  0  0  0  0
  8  9  1  1  0  0  0
  8  7  1  0  0  0  0
 10 16  1  1  0  0  0
 11 10  1  0  0  0  0
 12 17  1  1  0  0  0
 12 11  1  0  0  0  0
 15  9  1  0  0  0  0
 22  8  1  0  0  0  0
 22  1  1  0  0  0  0
M  END
>  <CHROM.1>
169.66825108,55.76074897,58.20745553,15.01214174,-9.75015278,27.09306143
2.87164075,-1.14597218,2.13611207

>  <Name>
lig.pdb

>  <RI>
0

>  <Rbt.Current_Directory>
/home/itssahil/PROJECTS/Mol_Feturizer/New_Systems/rnas/5bxk

>  <Rbt.Executable>
rbdock ($Id: //depot/dev/client3/rdock/2013.1/src/exe/rbdock.cxx#4 $)

>  <Rbt.Library>
libRbt.so (2013.1, Build901 2013/11/27)

>  <Rbt.Parameter_File>
/export/apps/rDock/src/rDock_2013.1_src/data/scripts/dock_solv.prm

>  <Rbt.Receptor>
prm/pocket_docking_8.prm

>  <SCORE>
-11.4616

>  <SCORE.INTER>
-7.93304

>  <SCORE.INTER.CONST>
1

>  <SCORE.INTER.POLAR>
0

>  <SCORE.INTER.ROT>
3

>  <SCORE.INTER.SOLV>
18.1861

>  <SCORE.INTER.VDW>
-16.9507

>  <SCORE.INTER.norm>
-0.360593

>  <SCORE.INTRA>
-3.52857

>  <SCORE.INTRA.DIHEDRAL>
-6.4506

>  <SCORE.INTRA.DIHEDRAL.0>
7.18044

>  <SCORE.INTRA.POLAR>
0

>  <SCORE.INTRA.POLAR.0>
0

>  <SCORE.INTRA.REPUL>
0

>  <SCORE.INTRA.REPUL.0>
0

>  <SCORE.INTRA.SOLV>
-0.691496

>  <SCORE.INTRA.SOLV.lig_0>
-72.0615

>  <SCORE.INTRA.VDW>
0.0424755

>  <SCORE.INTRA.VDW.0>
-1.54792

>  <SCORE.INTRA.norm>
-0.16039

>  <SCORE.RESTR>
0

>  <SCORE.RESTR.CAVITY>
0

>  <SCORE.RESTR.norm>
0

>  <SCORE.SYSTEM>
0

>  <SCORE.SYSTEM.CONST>
0

>  <SCORE.SYSTEM.DIHEDRAL>
0

>  <SCORE.SYSTEM.SOLV>
0

>  <SCORE.SYSTEM.norm>
0

>  <SCORE.heavy>
22

>  <SCORE.norm>
-0.520982

>  <RMSD>
6.541

$$$$
lig.pdb
 OpenBabel11021811523D
libRbt.so/2013.1/901 2013/11/27
 22 23  0  0  0  0  0  0  0  0999 V2000
   13.2867   -8.4827   26.8915 C   0  0  1  0  0  0  0  0  0  0  0  0
   15.4282   -9.5175   26.1224 C   0  0  1  0  0  0  0  0  0  0  0  0
   14.7633  -10.9410   25.6526 C   0  0  1  0  0  0  0  0  0  0  0  0
   15.9521  -12.0243   25.5610 C   0  0  2  0  0  0  0  0  0  0  0  0
   12.4375   -7.1342   26.9591 C   0  0  1  0  0  0  0  0  0  0  0  0
   13.1508   -6.0765   27.8885 C   0  0  2  0  0  0  0  0  0  0  0  0
   13.2390   -6.6856   29.3730 C   0  0  1  0  0  0  0  0  0  0  0  0
   14.1536   -8.0229   29.3741 C   0  0  1  0  0  0  0  0  0  0  0  0
   14.3045   -8.6768   30.7755 C   0  0  0  0  0  0  0  0  0  0  0  0
   16.9739  -11.5280   24.4245 C   0  0  1  0  0  0  0  0  0  0  0  0
   17.5943  -10.1226   24.9128 C   0  0  0  0  0  0  0  0  0  0  0  0
   16.4518   -9.0307   25.0687 C   0  0  2  0  0  0  0  0  0  0  0  0
   13.8738   -5.7504   30.3079 F   0  0  0  0  0  0  0  0  0  0  0  0
   12.2984   -6.6585   25.5051 N   0  0  0  0  0  0  0  0  0  0  0  0
   15.0965   -9.8519   30.7913 N   0  0  0  0  0  0  0  0  0  0  0  0
   18.1162  -12.4871   24.2958 N   0  0  0  0  0  0  0  0  0  0  0  0
   16.9985   -7.7568   25.5263 N   0  0  0  0  0  0  0  0  0  0  0  0
   14.4775   -8.4802   26.2100 O   0  0  0  0  0  0  0  0  0  0  0  0
   13.7924  -11.3703   26.7058 O   0  0  0  0  0  0  0  0  0  0  0  0
   15.3978  -13.2322   25.1619 O   0  0  0  0  0  0  0  0  0  0  0  0
   12.4811   -5.1088   27.9062 O   0  0  0  0  0  0  0  0  0  0  0  0
   13.5010   -9.0183   28.3437 O   0  0  0  0  0  0  0  0  0  0  0  0
  1  5  1  0  0  0  0
  1 18  1  1  0  0  0
  2 18  1  6  0  0  0
  2  3  1  0  0  0  0
  2 12  1  0  0  0  0
  3 19  1  1  0  0  0
  3  4  1  0  0  0  0
  4 20  1  6  0  0  0
  4 10  1  0  0  0  0
  5  6  1  0  0  0  0
  5 14  1  6  0  0  0
  6 21  1  1  0  0  0
  7 13  1  1  0  0  0
  7  6  1  0  0  0  0
  8  9  1  1  0  0  0
  8  7  1  0  0  0  0
 10 16  1  1  0  0  0
 11 10  1  0  0  0  0
 12 17  1  1  0  0  0
 12 11  1  0  0  0  0
 15  9  1  0  0  0  0
 22  8  1  0  0  0  0
 22  1  1  0  0  0  0
M  END
>  <CHROM.1>
174.18308734,52.17808100,179.69136036,14.68266443,-8.96218360,27.04616927
2.89760113,-1.08226918,1.96605299

>  <Name>
lig.pdb

>  <RI>
0

>  <Rbt.Current_Directory>
/home/itssahil/PROJECTS/Mol_Feturizer/New_Systems/rnas/5bxk

>  <Rbt.Executable>
rbdock ($Id: //depot/dev/client3/rdock/2013.1/src/exe/rbdock.cxx#4 $)

>  <Rbt.Library>
libRbt.so (2013.1, Build901 2013/11/27)

>  <Rbt.Parameter_File>
/export/apps/rDock/src/rDock_2013.1_src/data/scripts/dock_solv.prm

>  <Rbt.Receptor>
prm/pocket_docking_5.prm

>  <SCORE>
-11.1854

>  <SCORE.INTER>
-7.15408

>  <SCORE.INTER.CONST>
1

>  <SCORE.INTER.POLAR>
0

>  <SCORE.INTER.ROT>
3

>  <SCORE.INTER.SOLV>
14.4844

>  <SCORE.INTER.VDW>
-15.1975

>  <SCORE.INTER.norm>
-0.325185

>  <SCORE.INTRA>
-4.03137

>  <SCORE.INTRA.DIHEDRAL>
-6.58751

>  <SCORE.INTRA.DIHEDRAL.0>
7.18044

>  <SCORE.INTRA.POLAR>
0

>  <SCORE.INTRA.POLAR.0>
0

>  <SCORE.INTRA.REPUL>
0

>  <SCORE.INTRA.REPUL.0>
0

>  <SCORE.INTRA.SOLV>
-1.75031

>  <SCORE.INTRA.SOLV.lig_0>
-72.0615

>  <SCORE.INTRA.VDW>
0.13754

>  <SCORE.INTRA.VDW.0>
-1.54792

>  <SCORE.INTRA.norm>
-0.183244

>  <SCORE.RESTR>
0

>  <SCORE.RESTR.CAVITY>
0

>  <SCORE.RESTR.norm>
0

>  <SCORE.SYSTEM>
0

>  <SCORE.SYSTEM.CONST>
0

>  <SCORE.SYSTEM.DIHEDRAL>
0

>  <SCORE.SYSTEM.SOLV>
0

>  <SCORE.SYSTEM.norm>
0

>  <SCORE.heavy>
22

>  <SCORE.norm>
-0.508429

>  <RMSD>
6.542

$$$$
lig.pdb
 OpenBabel11021811523D
libRbt.so/2013.1/901 2013/11/27
 22 23  0  0  0  0  0  0  0  0999 V2000
   13.9249   -9.3597   27.2020 C   0  0  1  0  0  0  0  0  0  0  0  0
   15.8545  -10.4218   26.0201 C   0  0  1  0  0  0  0  0  0  0  0  0
   15.0579  -11.7676   25.5269 C   0  0  1  0  0  0  0  0  0  0  0  0
   16.1643  -12.8861   25.1805 C   0  0  2  0  0  0  0  0  0  0  0  0
   13.2317   -7.9715   27.5712 C   0  0  1  0  0  0  0  0  0  0  0  0
   14.1872   -7.0982   28.4744 C   0  0  2  0  0  0  0  0  0  0  0  0
   14.4619   -7.8978   29.8410 C   0  0  1  0  0  0  0  0  0  0  0  0
   15.2319   -9.2887   29.5286 C   0  0  1  0  0  0  0  0  0  0  0  0
   15.5501  -10.1267   30.7978 C   0  0  0  0  0  0  0  0  0  0  0  0
   17.0501  -12.3304   23.9605 C   0  0  1  0  0  0  0  0  0  0  0  0
   17.8043  -11.0025   24.4765 C   0  0  0  0  0  0  0  0  0  0  0  0
   16.7527   -9.8832   24.8808 C   0  0  2  0  0  0  0  0  0  0  0  0
   15.3295   -7.1405   30.7494 F   0  0  0  0  0  0  0  0  0  0  0  0
   12.8993   -7.3039   26.2283 N   0  0  0  0  0  0  0  0  0  0  0  0
   14.4188  -10.4395   31.5919 N   0  0  0  0  0  0  0  0  0  0  0  0
   18.1122  -13.3200   23.5944 N   0  0  0  0  0  0  0  0  0  0  0  0
   17.4229   -8.6802   25.3655 N   0  0  0  0  0  0  0  0  0  0  0  0
   14.9808   -9.3586   26.3259 O   0  0  0  0  0  0  0  0  0  0  0  0
   14.2148  -12.2512   26.6635 O   0  0  0  0  0  0  0  0  0  0  0  0
   15.4980  -14.0284   24.7602 O   0  0  0  0  0  0  0  0  0  0  0  0
   13.6254   -6.0935   28.7200 O   0  0  0  0  0  0  0  0  0  0  0  0
   14.3251  -10.0920   28.5231 O   0  0  0  0  0  0  0  0  0  0  0  0
  1  5  1  0  0  0  0
  1 18  1  6  0  0  0
  2 18  1  6  0  0  0
  2  3  1  0  0  0  0
  2 12  1  0  0  0  0
  3 19  1  1  0  0  0
  3  4  1  0  0  0  0
  4 20  1  6  0  0  0
  4 10  1  0  0  0  0
  5  6  1  0  0  0  0
  5 14  1  6  0  0  0
  6 21  1  1  0  0  0
  7 13  1  1  0  0  0
  7  6  1  0  0  0  0
  8  9  1  1  0  0  0
  8  7  1  0  0  0  0
 10 16  1  1  0  0  0
 11 10  1  0  0  0  0
 12 17  1  1  0  0  0
 12 11  1  0  0  0  0
 15  9  1  0  0  0  0
 22  8  1  0  0  0  0
 22  1  1  0  0  0  0
M  END
>  <CHROM.1>
169.64206118,54.97960225,56.13347565,15.25710607,-9.91332148,27.15413354
3.10596327,-1.23777545,2.37583948

>  <Name>
lig.pdb

>  <RI>
0

>  <Rbt.Current_Directory>
/home/itssahil/PROJECTS/Mol_Feturizer/New_Systems/rnas/5bxk

>  <Rbt.Executable>
rbdock ($Id: //depot/dev/client3/rdock/2013.1/src/exe/rbdock.cxx#4 $)

>  <Rbt.Library>
libRbt.so (2013.1, Build901 2013/11/27)

>  <Rbt.Parameter_File>
/export/apps/rDock/src/rDock_2013.1_src/data/scripts/dock_solv.prm

>  <Rbt.Receptor>
prm/pocket_docking_6.prm

>  <SCORE>
-11.555

>  <SCORE.INTER>
-8.0816

>  <SCORE.INTER.CONST>
1

>  <SCORE.INTER.POLAR>
0

>  <SCORE.INTER.ROT>
3

>  <SCORE.INTER.SOLV>
15.9622

>  <SCORE.INTER.VDW>
-16.3085

>  <SCORE.INTER.norm>
-0.367345

>  <SCORE.INTRA>
-3.47339

>  <SCORE.INTRA.DIHEDRAL>
-6.37095

>  <SCORE.INTRA.DIHEDRAL.0>
7.18044

>  <SCORE.INTRA.POLAR>
0

>  <SCORE.INTRA.POLAR.0>
0

>  <SCORE.INTRA.REPUL>
0

>  <SCORE.INTRA.REPUL.0>
0

>  <SCORE.INTRA.SOLV>
-0.664886

>  <SCORE.INTRA.SOLV.lig_0>
-72.0615

>  <SCORE.INTRA.VDW>
0.0445306

>  <SCORE.INTRA.VDW.0>
-1.54792

>  <SCORE.INTRA.norm>
-0.157881

>  <SCORE.RESTR>
0

>  <SCORE.RESTR.CAVITY>
0

>  <SCORE.RESTR.norm>
0

>  <SCORE.SYSTEM>
0

>  <SCORE.SYSTEM.CONST>
0

>  <SCORE.SYSTEM.DIHEDRAL>
0

>  <SCORE.SYSTEM.SOLV>
0

>  <SCORE.SYSTEM.norm>
0

>  <SCORE.heavy>
22

>  <SCORE.norm>
-0.525227

>  <RMSD>
6.542

$$$$
lig.pdb
 OpenBabel11021811523D
libRbt.so/2013.1/901 2013/11/27
 22 23  0  0  0  0  0  0  0  0999 V2000
   13.2662   -8.4112   26.8082 C   0  0  1  0  0  0  0  0  0  0  0  0
   15.4101   -9.4756   26.0876 C   0  0  1  0  0  0  0  0  0  0  0  0
   14.7394  -10.9088   25.6570 C   0  0  1  0  0  0  0  0  0  0  0  0
   15.9226  -12.0007   25.6024 C   0  0  2  0  0  0  0  0  0  0  0  0
   12.4470   -7.0443   26.8753 C   0  0  1  0  0  0  0  0  0  0  0  0
   13.1730   -6.0094   27.8204 C   0  0  2  0  0  0  0  0  0  0  0  0
   13.2299   -6.6303   29.3015 C   0  0  1  0  0  0  0  0  0  0  0  0
   14.1140   -7.9880   29.3039 C   0  0  1  0  0  0  0  0  0  0  0  0
   14.2335   -8.6547   30.7023 C   0  0  0  0  0  0  0  0  0  0  0  0
   16.9518  -11.5434   24.4562 C   0  0  1  0  0  0  0  0  0  0  0  0
   17.5778  -10.1277   24.9057 C   0  0  0  0  0  0  0  0  0  0  0  0
   16.4407   -9.0256   25.0245 C   0  0  2  0  0  0  0  0  0  0  0  0
   13.8746   -5.7161   30.2503 F   0  0  0  0  0  0  0  0  0  0  0  0
   12.3359   -6.5558   25.4232 N   0  0  0  0  0  0  0  0  0  0  0  0
   15.0472   -9.8146   30.7306 N   0  0  0  0  0  0  0  0  0  0  0  0
   18.0893  -12.5121   24.3606 N   0  0  0  0  0  0  0  0  0  0  0  0
   16.9924   -7.7417   25.4468 N   0  0  0  0  0  0  0  0  0  0  0  0
   14.4647   -8.4312   26.1406 O   0  0  0  0  0  0  0  0  0  0  0  0
   13.7617  -11.3018   26.7182 O   0  0  0  0  0  0  0  0  0  0  0  0
   15.3634  -13.2168   25.2366 O   0  0  0  0  0  0  0  0  0  0  0  0
   12.5252   -5.0269   27.8372 O   0  0  0  0  0  0  0  0  0  0  0  0
   13.4512   -8.9614   28.2590 O   0  0  0  0  0  0  0  0  0  0  0  0
  1  5  1  0  0  0  0
  1 18  1  1  0  0  0
  2 18  1  6  0  0  0
  2  3  1  0  0  0  0
  2 12  1  0  0  0  0
  3 19  1  1  0  0  0
  3  4  1  0  0  0  0
  4 20  1  6  0  0  0
  4 10  1  0  0  0  0
  5  6  1  0  0  0  0
  5 14  1  6  0  0  0
  6 21  1  1  0  0  0
  7 13  1  1  0  0  0
  7  6  1  0  0  0  0
  8  9  1  1  0  0  0
  8  7  1  0  0  0  0
 10 16  1  1  0  0  0
 11 10  1  0  0  0  0
 12 17  1  1  0  0  0
 12 11  1  0  0  0  0
 15  9  1  0  0  0  0
 22  8  1  0  0  0  0
 22  1  1  0  0  0  0
M  END
>  <CHROM.1>
172.23072318,51.61410884,-177.64919777,14.66661291,-8.92277860,27.00936579
2.96515919,-1.08919283,2.02085944

>  <Name>
lig.pdb

>  <RI>
0

>  <Rbt.Current_Directory>
/home/itssahil/PROJECTS/Mol_Feturizer/New_Systems/rnas/5bxk

>  <Rbt.Executable>
rbdock ($Id: //depot/dev/client3/rdock/2013.1/src/exe/rbdock.cxx#4 $)

>  <Rbt.Library>
libRbt.so (2013.1, Build901 2013/11/27)

>  <Rbt.Parameter_File>
/export/apps/rDock/src/rDock_2013.1_src/data/scripts/dock_solv.prm

>  <Rbt.Receptor>
prm/pocket_docking_6.prm

>  <SCORE>
-11.1019

>  <SCORE.INTER>
-7.16283

>  <SCORE.INTER.CONST>
1

>  <SCORE.INTER.POLAR>
0

>  <SCORE.INTER.ROT>
3

>  <SCORE.INTER.SOLV>
14.3796

>  <SCORE.INTER.VDW>
-15.1684

>  <SCORE.INTER.norm>
-0.325583

>  <SCORE.INTRA>
-3.9391

>  <SCORE.INTRA.DIHEDRAL>
-6.40026

>  <SCORE.INTRA.DIHEDRAL.0>
7.18044

>  <SCORE.INTRA.POLAR>
0

>  <SCORE.INTRA.POLAR.0>
0

>  <SCORE.INTRA.REPUL>
0

>  <SCORE.INTRA.REPUL.0>
0

>  <SCORE.INTRA.SOLV>
-1.75966

>  <SCORE.INTRA.SOLV.lig_0>
-72.0615

>  <SCORE.INTRA.VDW>
0.140856

>  <SCORE.INTRA.VDW.0>
-1.54792

>  <SCORE.INTRA.norm>
-0.17905

>  <SCORE.RESTR>
0

>  <SCORE.RESTR.CAVITY>
0

>  <SCORE.RESTR.norm>
0

>  <SCORE.SYSTEM>
0

>  <SCORE.SYSTEM.CONST>
0

>  <SCORE.SYSTEM.DIHEDRAL>
0

>  <SCORE.SYSTEM.SOLV>
0

>  <SCORE.SYSTEM.norm>
0

>  <SCORE.heavy>
22

>  <SCORE.norm>
-0.504633

>  <RMSD>
6.544

$$$$
lig.pdb
 OpenBabel11021811523D
libRbt.so/2013.1/901 2013/11/27
 22 23  0  0  0  0  0  0  0  0999 V2000
   13.8738   -9.4249   27.3058 C   0  0  1  0  0  0  0  0  0  0  0  0
   15.8097  -10.4246   26.0806 C   0  0  1  0  0  0  0  0  0  0  0  0
   15.0570  -11.7801   25.5466 C   0  0  1  0  0  0  0  0  0  0  0  0
   16.1983  -12.8594   25.1893 C   0  0  2  0  0  0  0  0  0  0  0  0
   13.1257   -8.0632   27.6667 C   0  0  1  0  0  0  0  0  0  0  0  0
   14.0637   -7.1262   28.5231 C   0  0  2  0  0  0  0  0  0  0  0  0
   14.4152   -7.8817   29.8971 C   0  0  1  0  0  0  0  0  0  0  0  0
   15.2416   -9.2412   29.5909 C   0  0  1  0  0  0  0  0  0  0  0  0
   15.6355  -10.0351   30.8672 C   0  0  0  0  0  0  0  0  0  0  0  0
   17.0834  -12.2514   23.9939 C   0  0  1  0  0  0  0  0  0  0  0  0
   17.7939  -10.9155   24.5498 C   0  0  0  0  0  0  0  0  0  0  0  0
   16.7067   -9.8353   24.9657 C   0  0  2  0  0  0  0  0  0  0  0  0
   15.2711   -7.0645   30.7638 F   0  0  0  0  0  0  0  0  0  0  0  0
   12.7236   -7.4418   26.3206 N   0  0  0  0  0  0  0  0  0  0  0  0
   14.5388  -10.4305   31.6728 N   0  0  0  0  0  0  0  0  0  0  0  0
   18.1771  -13.2027   23.6193 N   0  0  0  0  0  0  0  0  0  0  0  0
   17.3370   -8.6258   25.4863 N   0  0  0  0  0  0  0  0  0  0  0  0
   14.9030   -9.3932   26.3991 O   0  0  0  0  0  0  0  0  0  0  0  0
   14.2137  -12.3129   26.6607 O   0  0  0  0  0  0  0  0  0  0  0  0
   15.5694  -14.0096   24.7344 O   0  0  0  0  0  0  0  0  0  0  0  0
   13.4617   -6.1440   28.7644 O   0  0  0  0  0  0  0  0  0  0  0  0
   14.3461  -10.1083   28.6294 O   0  0  0  0  0  0  0  0  0  0  0  0
  1  5  1  0  0  0  0
  1 18  1  6  0  0  0
  2 18  1  6  0  0  0
  2  3  1  0  0  0  0
  2 12  1  0  0  0  0
  3 19  1  1  0  0  0
  3  4  1  0  0  0  0
  4 20  1  6  0  0  0
  4 10  1  0  0  0  0
  5  6  1  0  0  0  0
  5 14  1  6  0  0  0
  6 21  1  1  0  0  0
  7 13  1  1  0  0  0
  7  6  1  0  0  0  0
  8  9  1  1  0  0  0
  8  7  1  0  0  0  0
 10 16  1  1  0  0  0
 11 10  1  0  0  0  0
 12 17  1  1  0  0  0
 12 11  1  0  0  0  0
 15  9  1  0  0  0  0
 22  8  1  0  0  0  0
 22  1  1  0  0  0  0
M  END
>  <CHROM.1>
170.29379559,58.20899623,58.56756062,15.23160200,-9.90547492,27.20947609
2.93130931,-1.22199580,2.19729140

>  <Name>
lig.pdb

>  <RI>
0

>  <Rbt.Current_Directory>
/home/itssahil/PROJECTS/Mol_Feturizer/New_Systems/rnas/5bxk

>  <Rbt.Executable>
rbdock ($Id: //depot/dev/client3/rdock/2013.1/src/exe/rbdock.cxx#4 $)

>  <Rbt.Library>
libRbt.so (2013.1, Build901 2013/11/27)

>  <Rbt.Parameter_File>
/export/apps/rDock/src/rDock_2013.1_src/data/scripts/dock_solv.prm

>  <Rbt.Receptor>
prm/pocket_docking_8.prm

>  <SCORE>
-11.5132

>  <SCORE.INTER>
-7.85951

>  <SCORE.INTER.CONST>
1

>  <SCORE.INTER.POLAR>
0

>  <SCORE.INTER.ROT>
3

>  <SCORE.INTER.SOLV>
16.1094

>  <SCORE.INTER.VDW>
-16.2095

>  <SCORE.INTER.norm>
-0.35725

>  <SCORE.INTRA>
-3.65369

>  <SCORE.INTRA.DIHEDRAL>
-6.58407

>  <SCORE.INTRA.DIHEDRAL.0>
7.18044

>  <SCORE.INTRA.POLAR>
0

>  <SCORE.INTRA.POLAR.0>
0

>  <SCORE.INTRA.REPUL>
0

>  <SCORE.INTRA.REPUL.0>
0

>  <SCORE.INTRA.SOLV>
-0.725069

>  <SCORE.INTRA.SOLV.lig_0>
-72.0615

>  <SCORE.INTRA.VDW>
0.000881741

>  <SCORE.INTRA.VDW.0>
-1.54792

>  <SCORE.INTRA.norm>
-0.166077

>  <SCORE.RESTR>
0

>  <SCORE.RESTR.CAVITY>
0

>  <SCORE.RESTR.norm>
0

>  <SCORE.SYSTEM>
0

>  <SCORE.SYSTEM.CONST>
0

>  <SCORE.SYSTEM.DIHEDRAL>
0

>  <SCORE.SYSTEM.SOLV>
0

>  <SCORE.SYSTEM.norm>
0

>  <SCORE.heavy>
22

>  <SCORE.norm>
-0.523327

>  <RMSD>
6.546

$$$$
lig.pdb
 OpenBabel11021811523D
libRbt.so/2013.1/901 2013/11/27
 22 23  0  0  0  0  0  0  0  0999 V2000
   13.8129   -9.4443   27.3298 C   0  0  1  0  0  0  0  0  0  0  0  0
   15.7674  -10.3815   26.0848 C   0  0  1  0  0  0  0  0  0  0  0  0
   15.0404  -11.7433   25.5315 C   0  0  1  0  0  0  0  0  0  0  0  0
   16.2020  -12.7928   25.1518 C   0  0  2  0  0  0  0  0  0  0  0  0
   13.0223   -8.1091   27.6989 C   0  0  1  0  0  0  0  0  0  0  0  0
   13.9300   -7.1487   28.5620 C   0  0  2  0  0  0  0  0  0  0  0  0
   14.3043   -7.9017   29.9314 C   0  0  1  0  0  0  0  0  0  0  0  0
   15.1731   -9.2325   29.6170 C   0  0  1  0  0  0  0  0  0  0  0  0
   15.5911  -10.0221   30.8884 C   0  0  0  0  0  0  0  0  0  0  0  0
   17.0691  -12.1471   23.9630 C   0  0  1  0  0  0  0  0  0  0  0  0
   17.7544  -10.8062   24.5380 C   0  0  0  0  0  0  0  0  0  0  0  0
   16.6471   -9.7556   24.9761 C   0  0  2  0  0  0  0  0  0  0  0  0
   15.1336   -7.0637   30.8040 F   0  0  0  0  0  0  0  0  0  0  0  0
   12.6016   -7.4919   26.3566 N   0  0  0  0  0  0  0  0  0  0  0  0
   14.5059  -10.4878   31.6718 N   0  0  0  0  0  0  0  0  0  0  0  0
   18.1804  -13.0694   23.5681 N   0  0  0  0  0  0  0  0  0  0  0  0
   17.2547   -8.5421   25.5141 N   0  0  0  0  0  0  0  0  0  0  0  0
   14.8411   -9.3744   26.4240 O   0  0  0  0  0  0  0  0  0  0  0  0
   14.2131  -12.3116   26.6402 O   0  0  0  0  0  0  0  0  0  0  0  0
   15.5949  -13.9481   24.6806 O   0  0  0  0  0  0  0  0  0  0  0  0
   13.2973   -6.1875   28.8092 O   0  0  0  0  0  0  0  0  0  0  0  0
   14.3057  -10.1211   28.6493 O   0  0  0  0  0  0  0  0  0  0  0  0
  1  5  1  0  0  0  0
  1 18  1  6  0  0  0
  2 18  1  6  0  0  0
  2  3  1  0  0  0  0
  2 12  1  0  0  0  0
  3 19  1  1  0  0  0
  3  4  1  0  0  0  0
  4 20  1  6  0  0  0
  4 10  1  0  0  0  0
  5  6  1  0  0  0  0
  5 14  1  6  0  0  0
  6 21  1  1  0  0  0
  7 13  1  1  0  0  0
  7  6  1  0  0  0  0
  8  9  1  1  0  0  0
  8  7  1  0  0  0  0
 10 16  1  1  0  0  0
 11 10  1  0  0  0  0
 12 17  1  1  0  0  0
 12 11  1  0  0  0  0
 15  9  1  0  0  0  0
 22  8  1  0  0  0  0
 22  1  1  0  0  0  0
M  END
>  <CHROM.1>
171.34910677,57.87380119,60.17786001,15.17149782,-9.88412153,27.21723330
2.88425391,-1.20365729,2.16514301

>  <Name>
lig.pdb

>  <RI>
0

>  <Rbt.Current_Directory>
/home/itssahil/PROJECTS/Mol_Feturizer/New_Systems/rnas/5bxk

>  <Rbt.Executable>
rbdock ($Id: //depot/dev/client3/rdock/2013.1/src/exe/rbdock.cxx#4 $)

>  <Rbt.Library>
libRbt.so (2013.1, Build901 2013/11/27)

>  <Rbt.Parameter_File>
/export/apps/rDock/src/rDock_2013.1_src/data/scripts/dock_solv.prm

>  <Rbt.Receptor>
prm/pocket_docking_8.prm

>  <SCORE>
-11.512

>  <SCORE.INTER>
-7.80394

>  <SCORE.INTER.CONST>
1

>  <SCORE.INTER.POLAR>
0

>  <SCORE.INTER.ROT>
3

>  <SCORE.INTER.SOLV>
16.8418

>  <SCORE.INTER.VDW>
-16.4166

>  <SCORE.INTER.norm>
-0.354725

>  <SCORE.INTRA>
-3.7081

>  <SCORE.INTRA.DIHEDRAL>
-6.6731

>  <SCORE.INTRA.DIHEDRAL.0>
7.18044

>  <SCORE.INTRA.POLAR>
0

>  <SCORE.INTRA.POLAR.0>
0

>  <SCORE.INTRA.REPUL>
0

>  <SCORE.INTRA.REPUL.0>
0

>  <SCORE.INTRA.SOLV>
-0.746009

>  <SCORE.INTRA.SOLV.lig_0>
-72.0615

>  <SCORE.INTRA.VDW>
0.00145519

>  <SCORE.INTRA.VDW.0>
-1.54792

>  <SCORE.INTRA.norm>
-0.16855

>  <SCORE.RESTR>
0

>  <SCORE.RESTR.CAVITY>
0

>  <SCORE.RESTR.norm>
0

>  <SCORE.SYSTEM>
0

>  <SCORE.SYSTEM.CONST>
0

>  <SCORE.SYSTEM.DIHEDRAL>
0

>  <SCORE.SYSTEM.SOLV>
0

>  <SCORE.SYSTEM.norm>
0

>  <SCORE.heavy>
22

>  <SCORE.norm>
-0.523275

>  <RMSD>
6.549

$$$$
lig.pdb
 OpenBabel11021811523D
libRbt.so/2013.1/901 2013/11/27
 22 23  0  0  0  0  0  0  0  0999 V2000
   14.2178   -9.7578   27.5278 C   0  0  1  0  0  0  0  0  0  0  0  0
   15.9909  -10.7584   26.0775 C   0  0  1  0  0  0  0  0  0  0  0  0
   15.1602  -12.0675   25.5432 C   0  0  1  0  0  0  0  0  0  0  0  0
   16.2387  -13.1564   25.0471 C   0  0  2  0  0  0  0  0  0  0  0  0
   13.4685   -8.4094   27.9331 C   0  0  1  0  0  0  0  0  0  0  0  0
   14.4619   -7.4203   28.6585 C   0  0  2  0  0  0  0  0  0  0  0  0
   14.9841   -8.1250   30.0050 C   0  0  1  0  0  0  0  0  0  0  0  0
   15.8172   -9.4673   29.6454 C   0  0  1  0  0  0  0  0  0  0  0  0
   16.3723  -10.2120   30.8911 C   0  0  0  0  0  0  0  0  0  0  0  0
   17.0446  -12.5139   23.8142 C   0  0  1  0  0  0  0  0  0  0  0  0
   17.8343  -11.2244   24.3727 C   0  0  0  0  0  0  0  0  0  0  0  0
   16.8143  -10.1387   24.9230 C   0  0  2  0  0  0  0  0  0  0  0  0
   15.9010   -7.2578   30.7525 F   0  0  0  0  0  0  0  0  0  0  0  0
   12.9034   -7.8393   26.6234 N   0  0  0  0  0  0  0  0  0  0  0  0
   17.3190   -9.4719   31.6422 N   0  0  0  0  0  0  0  0  0  0  0  0
   18.0779  -13.4730   23.3104 N   0  0  0  0  0  0  0  0  0  0  0  0
   17.5178   -8.9717   25.4469 N   0  0  0  0  0  0  0  0  0  0  0  0
   15.1418   -9.7213   26.5141 O   0  0  0  0  0  0  0  0  0  0  0  0
   14.3918  -12.6321   26.6953 O   0  0  0  0  0  0  0  0  0  0  0  0
   15.5435  -14.2674   24.5913 O   0  0  0  0  0  0  0  0  0  0  0  0
   13.8572   -6.4501   28.9388 O   0  0  0  0  0  0  0  0  0  0  0  0
   14.8523  -10.3883   28.8092 O   0  0  0  0  0  0  0  0  0  0  0  0
  1  5  1  0  0  0  0
  1 18  1  6  0  0  0
  2 18  1  6  0  0  0
  2  3  1  0  0  0  0
  2 12  1  0  0  0  0
  3 19  1  1  0  0  0
  3  4  1  0  0  0  0
  4 20  1  6  0  0  0
  4 10  1  0  0  0  0
  5  6  1  0  0  0  0
  5 14  1  6  0  0  0
  6 21  1  1  0  0  0
  7 13  1  6  0  0  0
  7  6  1  0  0  0  0
  8  9  1  1  0  0  0
  8  7  1  0  0  0  0
 10 16  1  1  0  0  0
 11 10  1  0  0  0  0
 12 17  1  1  0  0  0
 12 11  1  0  0  0  0
 15  9  1  0  0  0  0
 22  8  1  0  0  0  0
 22  1  1  0  0  0  0
M  END
>  <CHROM.1>
174.13735109,60.63374279,-63.38868998,15.61562735,-10.13919099,27.23419598
1.89775496,-0.84625737,1.10805912

>  <Name>
lig.pdb

>  <RI>
0

>  <Rbt.Current_Directory>
/home/itssahil/PROJECTS/Mol_Feturizer/New_Systems/rnas/5bxk

>  <Rbt.Executable>
rbdock ($Id: //depot/dev/client3/rdock/2013.1/src/exe/rbdock.cxx#4 $)

>  <Rbt.Library>
libRbt.so (2013.1, Build901 2013/11/27)

>  <Rbt.Parameter_File>
/export/apps/rDock/src/rDock_2013.1_src/data/scripts/dock_solv.prm

>  <Rbt.Receptor>
prm/pocket_docking_5.prm

>  <SCORE>
-10.9732

>  <SCORE.INTER>
-7.19442

>  <SCORE.INTER.CONST>
1

>  <SCORE.INTER.POLAR>
0

>  <SCORE.INTER.ROT>
3

>  <SCORE.INTER.SOLV>
16.4691

>  <SCORE.INTER.VDW>
-15.886

>  <SCORE.INTER.norm>
-0.327019

>  <SCORE.INTRA>
-3.77878

>  <SCORE.INTRA.DIHEDRAL>
-6.8403

>  <SCORE.INTRA.DIHEDRAL.0>
7.18044

>  <SCORE.INTRA.POLAR>
0

>  <SCORE.INTRA.POLAR.0>
0

>  <SCORE.INTRA.REPUL>
0

>  <SCORE.INTRA.REPUL.0>
0

>  <SCORE.INTRA.SOLV>
-0.903193

>  <SCORE.INTRA.SOLV.lig_0>
-72.0615

>  <SCORE.INTRA.VDW>
0.0929724

>  <SCORE.INTRA.VDW.0>
-1.54792

>  <SCORE.INTRA.norm>
-0.171763

>  <SCORE.RESTR>
0

>  <SCORE.RESTR.CAVITY>
0

>  <SCORE.RESTR.norm>
0

>  <SCORE.SYSTEM>
0

>  <SCORE.SYSTEM.CONST>
0

>  <SCORE.SYSTEM.DIHEDRAL>
0

>  <SCORE.SYSTEM.SOLV>
0

>  <SCORE.SYSTEM.norm>
0

>  <SCORE.heavy>
22

>  <SCORE.norm>
-0.498782

>  <RMSD>
6.552

$$$$
lig.pdb
 OpenBabel11021811523D
libRbt.so/2013.1/901 2013/11/27
 22 23  0  0  0  0  0  0  0  0999 V2000
   13.8967   -9.3647   27.2161 C   0  0  1  0  0  0  0  0  0  0  0  0
   15.8269  -10.4066   26.0174 C   0  0  1  0  0  0  0  0  0  0  0  0
   15.0460  -11.7645   25.5322 C   0  0  1  0  0  0  0  0  0  0  0  0
   16.1656  -12.8686   25.1821 C   0  0  2  0  0  0  0  0  0  0  0  0
   13.1686   -7.9883   27.5617 C   0  0  1  0  0  0  0  0  0  0  0  0
   14.1104   -7.0664   28.4304 C   0  0  2  0  0  0  0  0  0  0  0  0
   14.4261   -7.8245   29.8117 C   0  0  1  0  0  0  0  0  0  0  0  0
   15.2317   -9.2000   29.5220 C   0  0  1  0  0  0  0  0  0  0  0  0
   15.5906   -9.9975   30.8063 C   0  0  0  0  0  0  0  0  0  0  0  0
   17.0366  -12.3039   23.9555 C   0  0  1  0  0  0  0  0  0  0  0  0
   17.7755  -10.9645   24.4639 C   0  0  0  0  0  0  0  0  0  0  0  0
   16.7110   -9.8587   24.8715 C   0  0  2  0  0  0  0  0  0  0  0  0
   15.2834   -7.0209   30.6896 F   0  0  0  0  0  0  0  0  0  0  0  0
   12.7995   -7.3633   26.2079 N   0  0  0  0  0  0  0  0  0  0  0  0
   14.4737  -10.3765   31.5918 N   0  0  0  0  0  0  0  0  0  0  0  0
   18.1100  -13.2798   23.5857 N   0  0  0  0  0  0  0  0  0  0  0  0
   17.3674   -8.6454   25.3493 N   0  0  0  0  0  0  0  0  0  0  0  0
   14.9405   -9.3548   26.3256 O   0  0  0  0  0  0  0  0  0  0  0  0
   14.2163  -12.2567   26.6749 O   0  0  0  0  0  0  0  0  0  0  0  0
   15.5127  -14.0211   24.7685 O   0  0  0  0  0  0  0  0  0  0  0  0
   13.5231   -6.0725   28.6596 O   0  0  0  0  0  0  0  0  0  0  0  0
   14.3353  -10.0530   28.5487 O   0  0  0  0  0  0  0  0  0  0  0  0
  1  5  1  0  0  0  0
  1 18  1  6  0  0  0
  2 18  1  6  0  0  0
  2  3  1  0  0  0  0
  2 12  1  0  0  0  0
  3 19  1  1  0  0  0
  3  4  1  0  0  0  0
  4 20  1  6  0  0  0
  4 10  1  0  0  0  0
  5  6  1  0  0  0  0
  5 14  1  6  0  0  0
  6 21  1  1  0  0  0
  7 13  1  1  0  0  0
  7  6  1  0  0  0  0
  8  9  1  1  0  0  0
  8  7  1  0  0  0  0
 10 16  1  1  0  0  0
 11 10  1  0  0  0  0
 12 17  1  1  0  0  0
 12 11  1  0  0  0  0
 15  9  1  0  0  0  0
 22  8  1  0  0  0  0
 22  1  1  0  0  0  0
M  END
>  <CHROM.1>
170.77356019,55.57391205,58.90234977,15.23194101,-9.88096044,27.14395433
3.02453012,-1.23324482,2.28263569

>  <Name>
lig.pdb

>  <RI>
0

>  <Rbt.Current_Directory>
/home/itssahil/PROJECTS/Mol_Feturizer/New_Systems/rnas/5bxk

>  <Rbt.Executable>
rbdock ($Id: //depot/dev/client3/rdock/2013.1/src/exe/rbdock.cxx#4 $)

>  <Rbt.Library>
libRbt.so (2013.1, Build901 2013/11/27)

>  <Rbt.Parameter_File>
/export/apps/rDock/src/rDock_2013.1_src/data/scripts/dock_solv.prm

>  <Rbt.Receptor>
prm/pocket_docking_8.prm

>  <SCORE>
-11.6101

>  <SCORE.INTER>
-8.02251

>  <SCORE.INTER.CONST>
1

>  <SCORE.INTER.POLAR>
0

>  <SCORE.INTER.ROT>
3

>  <SCORE.INTER.SOLV>
16.1007

>  <SCORE.INTER.VDW>
-16.3152

>  <SCORE.INTER.norm>
-0.36466

>  <SCORE.INTRA>
-3.58756

>  <SCORE.INTRA.DIHEDRAL>
-6.54805

>  <SCORE.INTRA.DIHEDRAL.0>
7.18044

>  <SCORE.INTRA.POLAR>
0

>  <SCORE.INTRA.POLAR.0>
0

>  <SCORE.INTRA.REPUL>
0

>  <SCORE.INTRA.REPUL.0>
0

>  <SCORE.INTRA.SOLV>
-0.706255

>  <SCORE.INTRA.SOLV.lig_0>
-72.0615

>  <SCORE.INTRA.VDW>
0.0395935

>  <SCORE.INTRA.VDW.0>
-1.54792

>  <SCORE.INTRA.norm>
-0.163071

>  <SCORE.RESTR>
0

>  <SCORE.RESTR.CAVITY>
0

>  <SCORE.RESTR.norm>
0

>  <SCORE.SYSTEM>
0

>  <SCORE.SYSTEM.CONST>
0

>  <SCORE.SYSTEM.DIHEDRAL>
0

>  <SCORE.SYSTEM.SOLV>
0

>  <SCORE.SYSTEM.norm>
0

>  <SCORE.heavy>
22

>  <SCORE.norm>
-0.527731

>  <RMSD>
6.553

$$$$
lig.pdb
 OpenBabel11021811523D
libRbt.so/2013.1/901 2013/11/27
 22 23  0  0  0  0  0  0  0  0999 V2000
   13.5776   -9.0761   27.1158 C   0  0  1  0  0  0  0  0  0  0  0  0
   15.6235  -10.0206   26.0338 C   0  0  1  0  0  0  0  0  0  0  0  0
   14.9572  -11.4508   25.5869 C   0  0  1  0  0  0  0  0  0  0  0  0
   16.1631  -12.4850   25.3204 C   0  0  2  0  0  0  0  0  0  0  0  0
   12.7635   -7.7359   27.4079 C   0  0  1  0  0  0  0  0  0  0  0  0
   13.6183   -6.7516   28.2977 C   0  0  2  0  0  0  0  0  0  0  0  0
   13.9169   -7.4706   29.7035 C   0  0  1  0  0  0  0  0  0  0  0  0
   14.8059   -8.8048   29.4703 C   0  0  1  0  0  0  0  0  0  0  0  0
   15.1538   -9.5624   30.7816 C   0  0  0  0  0  0  0  0  0  0  0  0
   17.0320  -11.9116   24.0962 C   0  0  1  0  0  0  0  0  0  0  0  0
   17.6569  -10.5019   24.5658 C   0  0  0  0  0  0  0  0  0  0  0  0
   16.5039   -9.4595   24.8914 C   0  0  2  0  0  0  0  0  0  0  0  0
   14.6934   -6.6088   30.6013 F   0  0  0  0  0  0  0  0  0  0  0  0
   12.4175   -7.1523   26.0298 N   0  0  0  0  0  0  0  0  0  0  0  0
   14.0274   -9.9743   31.5365 N   0  0  0  0  0  0  0  0  0  0  0  0
   18.1834  -12.8223   23.8028 N   0  0  0  0  0  0  0  0  0  0  0  0
   17.0565   -8.1827   25.3337 N   0  0  0  0  0  0  0  0  0  0  0  0
   14.6550   -9.0233   26.2679 O   0  0  0  0  0  0  0  0  0  0  0  0
   14.1271  -11.9525   26.7252 O   0  0  0  0  0  0  0  0  0  0  0  0
   15.6075  -13.6982   24.9396 O   0  0  0  0  0  0  0  0  0  0  0  0
   12.9700   -5.7875   28.4860 O   0  0  0  0  0  0  0  0  0  0  0  0
   13.9971   -9.7195   28.4766 O   0  0  0  0  0  0  0  0  0  0  0  0
  1  5  1  0  0  0  0
  1 18  1  6  0  0  0
  2 18  1  6  0  0  0
  2  3  1  0  0  0  0
  2 12  1  0  0  0  0
  3 19  1  1  0  0  0
  3  4  1  0  0  0  0
  4 20  1  6  0  0  0
  4 10  1  0  0  0  0
  5  6  1  0  0  0  0
  5 14  1  6  0  0  0
  6 21  1  1  0  0  0
  7 13  1  1  0  0  0
  7  6  1  0  0  0  0
  8  9  1  1  0  0  0
  8  7  1  0  0  0  0
 10 16  1  1  0  0  0
 11 10  1  0  0  0  0
 12 17  1  1  0  0  0
 12 11  1  0  0  0  0
 15  9  1  0  0  0  0
 22  8  1  0  0  0  0
 22  1  1  0  0  0  0
M  END
>  <CHROM.1>
169.38315704,54.80502727,58.13814576,14.95337087,-9.52205287,27.12910035
3.01853711,-1.15703509,2.25181449

>  <Name>
lig.pdb

>  <RI>
0

>  <Rbt.Current_Directory>
/home/itssahil/PROJECTS/Mol_Feturizer/New_Systems/rnas/5bxk

>  <Rbt.Executable>
rbdock ($Id: //depot/dev/client3/rdock/2013.1/src/exe/rbdock.cxx#4 $)

>  <Rbt.Library>
libRbt.so (2013.1, Build901 2013/11/27)

>  <Rbt.Parameter_File>
/export/apps/rDock/src/rDock_2013.1_src/data/scripts/dock_solv.prm

>  <Rbt.Receptor>
prm/pocket_docking_5.prm

>  <SCORE>
-11.3686

>  <SCORE.INTER>
-7.88514

>  <SCORE.INTER.CONST>
1

>  <SCORE.INTER.POLAR>
0

>  <SCORE.INTER.ROT>
3

>  <SCORE.INTER.SOLV>
15.5853

>  <SCORE.INTER.VDW>
-16.0519

>  <SCORE.INTER.norm>
-0.358415

>  <SCORE.INTRA>
-3.48347

>  <SCORE.INTRA.DIHEDRAL>
-6.37869

>  <SCORE.INTRA.DIHEDRAL.0>
7.18044

>  <SCORE.INTRA.POLAR>
0

>  <SCORE.INTRA.POLAR.0>
0

>  <SCORE.INTRA.REPUL>
0

>  <SCORE.INTRA.REPUL.0>
0

>  <SCORE.INTRA.SOLV>
-0.678416

>  <SCORE.INTRA.SOLV.lig_0>
-72.0615

>  <SCORE.INTRA.VDW>
0.0450836

>  <SCORE.INTRA.VDW.0>
-1.54792

>  <SCORE.INTRA.norm>
-0.15834

>  <SCORE.RESTR>
0

>  <SCORE.RESTR.CAVITY>
0

>  <SCORE.RESTR.norm>
0

>  <SCORE.SYSTEM>
0

>  <SCORE.SYSTEM.CONST>
0

>  <SCORE.SYSTEM.DIHEDRAL>
0

>  <SCORE.SYSTEM.SOLV>
0

>  <SCORE.SYSTEM.norm>
0

>  <SCORE.heavy>
22

>  <SCORE.norm>
-0.516755

>  <RMSD>
6.554

$$$$
lig.pdb
 OpenBabel11021811523D
libRbt.so/2013.1/901 2013/11/27
 22 23  0  0  0  0  0  0  0  0999 V2000
   13.5501   -9.0741   27.0490 C   0  0  1  0  0  0  0  0  0  0  0  0
   15.6024  -10.0310   25.9901 C   0  0  1  0  0  0  0  0  0  0  0  0
   14.9435  -11.4679   25.5540 C   0  0  1  0  0  0  0  0  0  0  0  0
   16.1542  -12.5025   25.3114 C   0  0  2  0  0  0  0  0  0  0  0  0
   12.7427   -7.7275   27.3299 C   0  0  1  0  0  0  0  0  0  0  0  0
   13.6011   -6.7414   28.2143 C   0  0  2  0  0  0  0  0  0  0  0  0
   13.8930   -7.4518   29.6258 C   0  0  1  0  0  0  0  0  0  0  0  0
   14.7753   -8.7924   29.4040 C   0  0  1  0  0  0  0  0  0  0  0  0
   15.1166   -9.5423   30.7214 C   0  0  0  0  0  0  0  0  0  0  0  0
   17.0335  -11.9418   24.0890 C   0  0  1  0  0  0  0  0  0  0  0  0
   17.6509  -10.5252   24.5476 C   0  0  0  0  0  0  0  0  0  0  0  0
   16.4925   -9.4816   24.8497 C   0  0  2  0  0  0  0  0  0  0  0  0
   14.6723   -6.5876   30.5188 F   0  0  0  0  0  0  0  0  0  0  0  0
   12.4026   -7.1520   25.9469 N   0  0  0  0  0  0  0  0  0  0  0  0
   13.9863   -9.9612   31.4665 N   0  0  0  0  0  0  0  0  0  0  0  0
   18.1898  -12.8533   23.8175 N   0  0  0  0  0  0  0  0  0  0  0  0
   17.0381   -8.1984   25.2819 N   0  0  0  0  0  0  0  0  0  0  0  0
   14.6295   -9.0332   26.2030 O   0  0  0  0  0  0  0  0  0  0  0  0
   14.1036  -11.9579   26.6902 O   0  0  0  0  0  0  0  0  0  0  0  0
   15.6049  -13.7214   24.9398 O   0  0  0  0  0  0  0  0  0  0  0  0
   12.9575   -5.7725   28.3942 O   0  0  0  0  0  0  0  0  0  0  0  0
   13.9635   -9.7099   28.4153 O   0  0  0  0  0  0  0  0  0  0  0  0
  1  5  1  0  0  0  0
  1 18  1  6  0  0  0
  2 18  1  6  0  0  0
  2  3  1  0  0  0  0
  2 12  1  0  0  0  0
  3 19  1  1  0  0  0
  3  4  1  0  0  0  0
  4 20  1  6  0  0  0
  4 10  1  0  0  0  0
  5  6  1  0  0  0  0
  5 14  1  6  0  0  0
  6 21  1  1  0  0  0
  7 13  1  1  0  0  0
  7  6  1  0  0  0  0
  8  9  1  1  0  0  0
  8  7  1  0  0  0  0
 10 16  1  1  0  0  0
 11 10  1  0  0  0  0
 12 17  1  1  0  0  0
 12 11  1  0  0  0  0
 15  9  1  0  0  0  0
 22  8  1  0  0  0  0
 22  1  1  0  0  0  0
M  END
>  <CHROM.1>
168.53218063,55.38459642,59.07994060,14.93490656,-9.52500813,27.07812910
3.03298039,-1.15352651,2.25401536

>  <Name>
lig.pdb

>  <RI>
0

>  <Rbt.Current_Directory>
/home/itssahil/PROJECTS/Mol_Feturizer/New_Systems/rnas/5bxk

>  <Rbt.Executable>
rbdock ($Id: //depot/dev/client3/rdock/2013.1/src/exe/rbdock.cxx#4 $)

>  <Rbt.Library>
libRbt.so (2013.1, Build901 2013/11/27)

>  <Rbt.Parameter_File>
/export/apps/rDock/src/rDock_2013.1_src/data/scripts/dock_solv.prm

>  <Rbt.Receptor>
prm/pocket_docking_5.prm

>  <SCORE>
-11.338

>  <SCORE.INTER>
-7.86681

>  <SCORE.INTER.CONST>
1

>  <SCORE.INTER.POLAR>
0

>  <SCORE.INTER.ROT>
3

>  <SCORE.INTER.SOLV>
15.9379

>  <SCORE.INTER.VDW>
-16.1572

>  <SCORE.INTER.norm>
-0.357582

>  <SCORE.INTRA>
-3.47117

>  <SCORE.INTRA.DIHEDRAL>
-6.33133

>  <SCORE.INTRA.DIHEDRAL.0>
7.18044

>  <SCORE.INTRA.POLAR>
0

>  <SCORE.INTRA.POLAR.0>
0

>  <SCORE.INTRA.REPUL>
0

>  <SCORE.INTRA.REPUL.0>
0

>  <SCORE.INTRA.SOLV>
-0.68466

>  <SCORE.INTRA.SOLV.lig_0>
-72.0615

>  <SCORE.INTRA.VDW>
0.0368224

>  <SCORE.INTRA.VDW.0>
-1.54792

>  <SCORE.INTRA.norm>
-0.157781

>  <SCORE.RESTR>
0

>  <SCORE.RESTR.CAVITY>
0

>  <SCORE.RESTR.norm>
0

>  <SCORE.SYSTEM>
0

>  <SCORE.SYSTEM.CONST>
0

>  <SCORE.SYSTEM.DIHEDRAL>
0

>  <SCORE.SYSTEM.SOLV>
0

>  <SCORE.SYSTEM.norm>
0

>  <SCORE.heavy>
22

>  <SCORE.norm>
-0.515363

>  <RMSD>
6.557

$$$$
lig.pdb
 OpenBabel11021811523D
libRbt.so/2013.1/901 2013/11/27
 22 23  0  0  0  0  0  0  0  0999 V2000
   13.3598   -8.6432   26.9422 C   0  0  1  0  0  0  0  0  0  0  0  0
   15.4062   -9.7407   26.0171 C   0  0  1  0  0  0  0  0  0  0  0  0
   14.7139  -11.1906   25.6886 C   0  0  1  0  0  0  0  0  0  0  0  0
   15.8981  -12.2753   25.5609 C   0  0  2  0  0  0  0  0  0  0  0  0
   12.5725   -7.2622   27.0734 C   0  0  1  0  0  0  0  0  0  0  0  0
   13.4291   -6.2111   27.8814 C   0  0  2  0  0  0  0  0  0  0  0  0
   13.6739   -6.7884   29.3610 C   0  0  1  0  0  0  0  0  0  0  0  0
   14.5348   -8.1591   29.2898 C   0  0  1  0  0  0  0  0  0  0  0  0
   14.8303   -8.7856   30.6808 C   0  0  0  0  0  0  0  0  0  0  0  0
   16.8178  -11.8446   24.3156 C   0  0  1  0  0  0  0  0  0  0  0  0
   17.4675  -10.4119   24.6673 C   0  0  0  0  0  0  0  0  0  0  0  0
   16.3348   -9.3148   24.8546 C   0  0  2  0  0  0  0  0  0  0  0  0
   14.4489   -5.8565   30.1872 F   0  0  0  0  0  0  0  0  0  0  0  0
   12.2762   -6.8155   25.6338 N   0  0  0  0  0  0  0  0  0  0  0  0
   15.6631   -9.9314   30.6420 N   0  0  0  0  0  0  0  0  0  0  0  0
   17.9518  -12.8076   24.1476 N   0  0  0  0  0  0  0  0  0  0  0  0
   16.9093   -8.0153   25.1897 N   0  0  0  0  0  0  0  0  0  0  0  0
   14.4593   -8.7019   26.1236 O   0  0  0  0  0  0  0  0  0  0  0  0
   13.8374  -11.5591   26.8428 O   0  0  0  0  0  0  0  0  0  0  0  0
   15.3205  -13.5055   25.2808 O   0  0  0  0  0  0  0  0  0  0  0  0
   12.8006   -5.2185   27.9522 O   0  0  0  0  0  0  0  0  0  0  0  0
   13.7285   -9.1527   28.3727 O   0  0  0  0  0  0  0  0  0  0  0  0
  1  5  1  0  0  0  0
  1 18  1  6  0  0  0
  2 18  1  6  0  0  0
  2  3  1  0  0  0  0
  2 12  1  0  0  0  0
  3 19  1  1  0  0  0
  3  4  1  0  0  0  0
  4 20  1  6  0  0  0
  4 10  1  0  0  0  0
  5  6  1  0  0  0  0
  5 14  1  6  0  0  0
  6 21  1  1  0  0  0
  7 13  1  1  0  0  0
  7  6  1  0  0  0  0
  8  9  1  1  0  0  0
  8  7  1  0  0  0  0
 10 16  1  1  0  0  0
 11 10  1  0  0  0  0
 12 17  1  1  0  0  0
 12 11  1  0  0  0  0
 15  9  1  0  0  0  0
 22  8  1  0  0  0  0
 22  1  1  0  0  0  0
M  END
>  <CHROM.1>
169.54753769,55.12335435,-175.68458103,14.81133786,-9.15285382,26.99975063
2.67759080,-1.11704455,1.71404436

>  <Name>
lig.pdb

>  <RI>
0

>  <Rbt.Current_Directory>
/home/itssahil/PROJECTS/Mol_Feturizer/New_Systems/rnas/5bxk

>  <Rbt.Executable>
rbdock ($Id: //depot/dev/client3/rdock/2013.1/src/exe/rbdock.cxx#4 $)

>  <Rbt.Library>
libRbt.so (2013.1, Build901 2013/11/27)

>  <Rbt.Parameter_File>
/export/apps/rDock/src/rDock_2013.1_src/data/scripts/dock_solv.prm

>  <Rbt.Receptor>
prm/pocket_docking_7.prm

>  <SCORE>
-10.9418

>  <SCORE.INTER>
-6.95124

>  <SCORE.INTER.CONST>
1

>  <SCORE.INTER.POLAR>
0

>  <SCORE.INTER.ROT>
3

>  <SCORE.INTER.SOLV>
16.4537

>  <SCORE.INTER.VDW>
-15.7187

>  <SCORE.INTER.norm>
-0.315965

>  <SCORE.INTRA>
-3.99055

>  <SCORE.INTRA.DIHEDRAL>
-6.35414

>  <SCORE.INTRA.DIHEDRAL.0>
7.18044

>  <SCORE.INTRA.POLAR>
0

>  <SCORE.INTRA.POLAR.0>
0

>  <SCORE.INTRA.REPUL>
0

>  <SCORE.INTRA.REPUL.0>
0

>  <SCORE.INTRA.SOLV>
-1.79435

>  <SCORE.INTRA.SOLV.lig_0>
-72.0615

>  <SCORE.INTRA.VDW>
0.0836983

>  <SCORE.INTRA.VDW.0>
-1.54792

>  <SCORE.INTRA.norm>
-0.181388

>  <SCORE.RESTR>
0

>  <SCORE.RESTR.CAVITY>
0

>  <SCORE.RESTR.norm>
0

>  <SCORE.SYSTEM>
0

>  <SCORE.SYSTEM.CONST>
0

>  <SCORE.SYSTEM.DIHEDRAL>
0

>  <SCORE.SYSTEM.SOLV>
0

>  <SCORE.SYSTEM.norm>
0

>  <SCORE.heavy>
22

>  <SCORE.norm>
-0.497354

>  <RMSD>
6.559

$$$$
lig.pdb
 OpenBabel11021811523D
libRbt.so/2013.1/901 2013/11/27
 22 23  0  0  0  0  0  0  0  0999 V2000
   13.8757   -9.5073   27.2557 C   0  0  1  0  0  0  0  0  0  0  0  0
   15.8164  -10.5067   26.0377 C   0  0  1  0  0  0  0  0  0  0  0  0
   15.0641  -11.8689   25.5201 C   0  0  1  0  0  0  0  0  0  0  0  0
   16.2062  -12.9479   25.1646 C   0  0  2  0  0  0  0  0  0  0  0  0
   13.1206   -8.1472   27.6076 C   0  0  1  0  0  0  0  0  0  0  0  0
   14.0511   -7.2027   28.4641 C   0  0  2  0  0  0  0  0  0  0  0  0
   14.3996   -7.9511   29.8428 C   0  0  1  0  0  0  0  0  0  0  0  0
   15.2329   -9.3084   29.5459 C   0  0  1  0  0  0  0  0  0  0  0  0
   15.6245  -10.0954   30.8272 C   0  0  0  0  0  0  0  0  0  0  0  0
   17.0818  -12.3476   23.9583 C   0  0  1  0  0  0  0  0  0  0  0  0
   17.7920  -11.0050   24.4982 C   0  0  0  0  0  0  0  0  0  0  0  0
   16.7043   -9.9244   24.9119 C   0  0  2  0  0  0  0  0  0  0  0  0
   15.2484   -7.1267   30.7097 F   0  0  0  0  0  0  0  0  0  0  0  0
   12.7219   -7.5330   26.2572 N   0  0  0  0  0  0  0  0  0  0  0  0
   14.5271  -10.4760   31.6391 N   0  0  0  0  0  0  0  0  0  0  0  0
   18.1757  -13.2990   23.5846 N   0  0  0  0  0  0  0  0  0  0  0  0
   17.3345   -8.7087   25.4182 N   0  0  0  0  0  0  0  0  0  0  0  0
   14.9088   -9.4752   26.3533 O   0  0  0  0  0  0  0  0  0  0  0  0
   14.2296  -12.3945   26.6443 O   0  0  0  0  0  0  0  0  0  0  0  0
   15.5777  -14.1037   24.7236 O   0  0  0  0  0  0  0  0  0  0  0  0
   13.4440   -6.2220   28.6986 O   0  0  0  0  0  0  0  0  0  0  0  0
   14.3450  -10.1832   28.5842 O   0  0  0  0  0  0  0  0  0  0  0  0
  1  5  1  0  0  0  0
  1 18  1  6  0  0  0
  2 18  1  6  0  0  0
  2  3  1  0  0  0  0
  2 12  1  0  0  0  0
  3 19  1  1  0  0  0
  3  4  1  0  0  0  0
  4 20  1  6  0  0  0
  4 10  1  0  0  0  0
  5  6  1  0  0  0  0
  5 14  1  6  0  0  0
  6 21  1  1  0  0  0
  7 13  1  1  0  0  0
  7  6  1  0  0  0  0
  8  9  1  1  0  0  0
  8  7  1  0  0  0  0
 10 16  1  1  0  0  0
 11 10  1  0  0  0  0
 12 17  1  1  0  0  0
 12 11  1  0  0  0  0
 15  9  1  0  0  0  0
 22  8  1  0  0  0  0
 22  1  1  0  0  0  0
M  END
>  <CHROM.1>
170.68327201,57.37056793,57.74833422,15.22851686,-9.98530326,27.16501045
2.93706619,-1.21984253,2.19973564

>  <Name>
lig.pdb

>  <RI>
0

>  <Rbt.Current_Directory>
/home/itssahil/PROJECTS/Mol_Feturizer/New_Systems/rnas/5bxk

>  <Rbt.Executable>
rbdock ($Id: //depot/dev/client3/rdock/2013.1/src/exe/rbdock.cxx#4 $)

>  <Rbt.Library>
libRbt.so (2013.1, Build901 2013/11/27)

>  <Rbt.Parameter_File>
/export/apps/rDock/src/rDock_2013.1_src/data/scripts/dock_solv.prm

>  <Rbt.Receptor>
prm/pocket_docking_8.prm

>  <SCORE>
-11.5156

>  <SCORE.INTER>
-7.87865

>  <SCORE.INTER.CONST>
1

>  <SCORE.INTER.POLAR>
0

>  <SCORE.INTER.ROT>
3

>  <SCORE.INTER.SOLV>
16.8307

>  <SCORE.INTER.VDW>
-16.4627

>  <SCORE.INTER.norm>
-0.358121

>  <SCORE.INTRA>
-3.63694

>  <SCORE.INTRA.DIHEDRAL>
-6.58886

>  <SCORE.INTRA.DIHEDRAL.0>
7.18044

>  <SCORE.INTRA.POLAR>
0

>  <SCORE.INTRA.POLAR.0>
0

>  <SCORE.INTRA.REPUL>
0

>  <SCORE.INTRA.REPUL.0>
0

>  <SCORE.INTRA.SOLV>
-0.712955

>  <SCORE.INTRA.SOLV.lig_0>
-72.0615

>  <SCORE.INTRA.VDW>
0.0139705

>  <SCORE.INTRA.VDW.0>
-1.54792

>  <SCORE.INTRA.norm>
-0.165315

>  <SCORE.RESTR>
0

>  <SCORE.RESTR.CAVITY>
0

>  <SCORE.RESTR.norm>
0

>  <SCORE.SYSTEM>
0

>  <SCORE.SYSTEM.CONST>
0

>  <SCORE.SYSTEM.DIHEDRAL>
0

>  <SCORE.SYSTEM.SOLV>
0

>  <SCORE.SYSTEM.norm>
0

>  <SCORE.heavy>
22

>  <SCORE.norm>
-0.523436

>  <RMSD>
6.561

$$$$
lig.pdb
 OpenBabel11021811523D
libRbt.so/2013.1/901 2013/11/27
 22 23  0  0  0  0  0  0  0  0999 V2000
   13.9842   -9.6137   27.4291 C   0  0  1  0  0  0  0  0  0  0  0  0
   15.8827  -10.5748   26.1176 C   0  0  1  0  0  0  0  0  0  0  0  0
   15.0963  -11.9033   25.5645 C   0  0  1  0  0  0  0  0  0  0  0  0
   16.2121  -12.9785   25.1239 C   0  0  2  0  0  0  0  0  0  0  0  0
   13.2328   -8.2684   27.8414 C   0  0  1  0  0  0  0  0  0  0  0  0
   14.1776   -7.3507   28.7112 C   0  0  2  0  0  0  0  0  0  0  0  0
   14.5546   -8.1441   30.0568 C   0  0  1  0  0  0  0  0  0  0  0  0
   15.3851   -9.4882   29.6981 C   0  0  1  0  0  0  0  0  0  0  0  0
   15.8033  -10.3169   30.9442 C   0  0  0  0  0  0  0  0  0  0  0  0
   17.0562  -12.3347   23.9176 C   0  0  1  0  0  0  0  0  0  0  0  0
   17.8010  -11.0262   24.4935 C   0  0  0  0  0  0  0  0  0  0  0  0
   16.7416   -9.9527   24.9906 C   0  0  2  0  0  0  0  0  0  0  0  0
   15.4182   -7.3470   30.9345 F   0  0  0  0  0  0  0  0  0  0  0  0
   12.8065   -7.6102   26.5205 N   0  0  0  0  0  0  0  0  0  0  0  0
   14.7253  -10.7052   31.7781 N   0  0  0  0  0  0  0  0  0  0  0  0
   18.1250  -13.2809   23.4662 N   0  0  0  0  0  0  0  0  0  0  0  0
   17.4037   -8.7686   25.5298 N   0  0  0  0  0  0  0  0  0  0  0  0
   14.9994   -9.5480   26.5085 O   0  0  0  0  0  0  0  0  0  0  0  0
   14.2916  -12.4693   26.6907 O   0  0  0  0  0  0  0  0  0  0  0  0
   15.5545  -14.1058   24.6525 O   0  0  0  0  0  0  0  0  0  0  0  0
   13.5729   -6.3803   28.9904 O   0  0  0  0  0  0  0  0  0  0  0  0
   14.4807  -10.3326   28.7246 O   0  0  0  0  0  0  0  0  0  0  0  0
  1  5  1  0  0  0  0
  1 18  1  6  0  0  0
  2 18  1  6  0  0  0
  2  3  1  0  0  0  0
  2 12  1  0  0  0  0
  3 19  1  1  0  0  0
  3  4  1  0  0  0  0
  4 20  1  6  0  0  0
  4 10  1  0  0  0  0
  5  6  1  0  0  0  0
  5 14  1  6  0  0  0
  6 21  1  1  0  0  0
  7 13  1  1  0  0  0
  7  6  1  0  0  0  0
  8  9  1  1  0  0  0
  8  7  1  0  0  0  0
 10 16  1  1  0  0  0
 11 10  1  0  0  0  0
 12 17  1  1  0  0  0
 12 11  1  0  0  0  0
 15  9  1  0  0  0  0
 22  8  1  0  0  0  0
 22  1  1  0  0  0  0
M  END
>  <CHROM.1>
172.34215194,56.42640398,56.55342384,15.31284100,-10.08572585,27.27755137
2.87866853,-1.24115596,2.18611399

>  <Name>
lig.pdb

>  <RI>
0

>  <Rbt.Current_Directory>
/home/itssahil/PROJECTS/Mol_Feturizer/New_Systems/rnas/5bxk

>  <Rbt.Executable>
rbdock ($Id: //depot/dev/client3/rdock/2013.1/src/exe/rbdock.cxx#4 $)

>  <Rbt.Library>
libRbt.so (2013.1, Build901 2013/11/27)

>  <Rbt.Parameter_File>
/export/apps/rDock/src/rDock_2013.1_src/data/scripts/dock_solv.prm

>  <Rbt.Receptor>
prm/pocket_docking_7.prm

>  <SCORE>
-11.5852

>  <SCORE.INTER>
-7.92666

>  <SCORE.INTER.CONST>
1

>  <SCORE.INTER.POLAR>
0

>  <SCORE.INTER.ROT>
3

>  <SCORE.INTER.SOLV>
17.3587

>  <SCORE.INTER.VDW>
-16.6707

>  <SCORE.INTER.norm>
-0.360303

>  <SCORE.INTRA>
-3.65853

>  <SCORE.INTRA.DIHEDRAL>
-6.66516

>  <SCORE.INTRA.DIHEDRAL.0>
7.18044

>  <SCORE.INTRA.POLAR>
0

>  <SCORE.INTRA.POLAR.0>
0

>  <SCORE.INTRA.REPUL>
0

>  <SCORE.INTRA.REPUL.0>
0

>  <SCORE.INTRA.SOLV>
-0.70779

>  <SCORE.INTRA.SOLV.lig_0>
-72.0615

>  <SCORE.INTRA.VDW>
0.0279439

>  <SCORE.INTRA.VDW.0>
-1.54792

>  <SCORE.INTRA.norm>
-0.166297

>  <SCORE.RESTR>
0

>  <SCORE.RESTR.CAVITY>
0

>  <SCORE.RESTR.norm>
0

>  <SCORE.SYSTEM>
0

>  <SCORE.SYSTEM.CONST>
0

>  <SCORE.SYSTEM.DIHEDRAL>
0

>  <SCORE.SYSTEM.SOLV>
0

>  <SCORE.SYSTEM.norm>
0

>  <SCORE.heavy>
22

>  <SCORE.norm>
-0.5266

>  <RMSD>
6.562

$$$$
lig.pdb
 OpenBabel11021811523D
libRbt.so/2013.1/901 2013/11/27
 22 23  0  0  0  0  0  0  0  0999 V2000
   14.1558   -9.9440   27.5570 C   0  0  1  0  0  0  0  0  0  0  0  0
   15.9625  -10.8319   26.0750 C   0  0  1  0  0  0  0  0  0  0  0  0
   15.1970  -12.1644   25.5025 C   0  0  1  0  0  0  0  0  0  0  0  0
   16.3281  -13.1885   24.9858 C   0  0  2  0  0  0  0  0  0  0  0  0
   13.3084   -8.6533   27.9570 C   0  0  1  0  0  0  0  0  0  0  0  0
   14.2297   -7.5822   28.6608 C   0  0  2  0  0  0  0  0  0  0  0  0
   14.8194   -8.2293   30.0083 C   0  0  1  0  0  0  0  0  0  0  0  0
   15.7502   -9.5068   29.6530 C   0  0  1  0  0  0  0  0  0  0  0  0
   16.3748  -10.1924   30.8997 C   0  0  0  0  0  0  0  0  0  0  0  0
   17.1092  -12.4776   23.7748 C   0  0  1  0  0  0  0  0  0  0  0  0
   17.8345  -11.1672   24.3708 C   0  0  0  0  0  0  0  0  0  0  0  0
   16.7618  -10.1449   24.9419 C   0  0  2  0  0  0  0  0  0  0  0  0
   15.6740   -7.2854   30.7363 F   0  0  0  0  0  0  0  0  0  0  0  0
   12.6869   -8.1433   26.6480 N   0  0  0  0  0  0  0  0  0  0  0  0
   17.3043   -9.3889   31.6059 N   0  0  0  0  0  0  0  0  0  0  0  0
   18.1890  -13.3740   23.2535 N   0  0  0  0  0  0  0  0  0  0  0  0
   17.4069   -8.9600   25.4996 N   0  0  0  0  0  0  0  0  0  0  0  0
   15.0633   -9.8472   26.5324 O   0  0  0  0  0  0  0  0  0  0  0  0
   14.4501  -12.7936   26.6350 O   0  0  0  0  0  0  0  0  0  0  0  0
   15.6882  -14.3188   24.4976 O   0  0  0  0  0  0  0  0  0  0  0  0
   13.5546   -6.6587   28.9380 O   0  0  0  0  0  0  0  0  0  0  0  0
   14.8509  -10.5091   28.8373 O   0  0  0  0  0  0  0  0  0  0  0  0
  1  5  1  0  0  0  0
  1 18  1  6  0  0  0
  2 18  1  6  0  0  0
  2  3  1  0  0  0  0
  2 12  1  0  0  0  0
  3 19  1  1  0  0  0
  3  4  1  0  0  0  0
  4 20  1  6  0  0  0
  4 10  1  0  0  0  0
  5  6  1  0  0  0  0
  5 14  1  6  0  0  0
  6 21  1  1  0  0  0
  7 13  1  6  0  0  0
  7  6  1  0  0  0  0
  8  9  1  1  0  0  0
  8  7  1  0  0  0  0
 10 16  1  1  0  0  0
 11 10  1  0  0  0  0
 12 17  1  1  0  0  0
 12 11  1  0  0  0  0
 15  9  1  0  0  0  0
 22  8  1  0  0  0  0
 22  1  1  0  0  0  0
M  END
>  <CHROM.1>
175.88022878,62.09660304,-65.47056798,15.55854613,-10.21422335,27.22483515
1.89311041,-0.70299760,1.08713587

>  <Name>
lig.pdb

>  <RI>
0

>  <Rbt.Current_Directory>
/home/itssahil/PROJECTS/Mol_Feturizer/New_Systems/rnas/5bxk

>  <Rbt.Executable>
rbdock ($Id: //depot/dev/client3/rdock/2013.1/src/exe/rbdock.cxx#4 $)

>  <Rbt.Library>
libRbt.so (2013.1, Build901 2013/11/27)

>  <Rbt.Parameter_File>
/export/apps/rDock/src/rDock_2013.1_src/data/scripts/dock_solv.prm

>  <Rbt.Receptor>
prm/pocket_docking_5.prm

>  <SCORE>
-10.9043

>  <SCORE.INTER>
-7.0972

>  <SCORE.INTER.CONST>
1

>  <SCORE.INTER.POLAR>
0

>  <SCORE.INTER.ROT>
3

>  <SCORE.INTER.SOLV>
17.8806

>  <SCORE.INTER.VDW>
-16.2917

>  <SCORE.INTER.norm>
-0.3226

>  <SCORE.INTRA>
-3.80718

>  <SCORE.INTRA.DIHEDRAL>
-6.83663

>  <SCORE.INTRA.DIHEDRAL.0>
7.18044

>  <SCORE.INTRA.POLAR>
0

>  <SCORE.INTRA.POLAR.0>
0

>  <SCORE.INTRA.REPUL>
0

>  <SCORE.INTRA.REPUL.0>
0

>  <SCORE.INTRA.SOLV>
-0.910741

>  <SCORE.INTRA.SOLV.lig_0>
-72.0615

>  <SCORE.INTRA.VDW>
0.0664995

>  <SCORE.INTRA.VDW.0>
-1.54792

>  <SCORE.INTRA.norm>
-0.173054

>  <SCORE.RESTR>
0.000131566

>  <SCORE.RESTR.CAVITY>
0.000131566

>  <SCORE.RESTR.norm>
5.98025e-06

>  <SCORE.SYSTEM>
0

>  <SCORE.SYSTEM.CONST>
0

>  <SCORE.SYSTEM.DIHEDRAL>
0

>  <SCORE.SYSTEM.SOLV>
0

>  <SCORE.SYSTEM.norm>
0

>  <SCORE.heavy>
22

>  <SCORE.norm>
-0.495648

>  <RMSD>
6.563

$$$$
lig.pdb
 OpenBabel11021811523D
libRbt.so/2013.1/901 2013/11/27
 22 23  0  0  0  0  0  0  0  0999 V2000
   13.2722   -8.4606   26.8487 C   0  0  1  0  0  0  0  0  0  0  0  0
   15.4166   -9.5062   26.1027 C   0  0  1  0  0  0  0  0  0  0  0  0
   14.7226  -10.9315   25.6832 C   0  0  1  0  0  0  0  0  0  0  0  0
   15.8965  -12.0297   25.5776 C   0  0  2  0  0  0  0  0  0  0  0  0
   12.4374   -7.1037   26.9266 C   0  0  1  0  0  0  0  0  0  0  0  0
   13.1389   -6.0770   27.8988 C   0  0  2  0  0  0  0  0  0  0  0  0
   13.1818   -6.7217   29.3701 C   0  0  1  0  0  0  0  0  0  0  0  0
   14.0803   -8.0698   29.3628 C   0  0  1  0  0  0  0  0  0  0  0  0
   14.1875   -8.7582   30.7517 C   0  0  0  0  0  0  0  0  0  0  0  0
   16.8878  -11.5681   24.4003 C   0  0  1  0  0  0  0  0  0  0  0  0
   17.5378  -10.1601   24.8400 C   0  0  0  0  0  0  0  0  0  0  0  0
   16.4123   -9.0525   25.0083 C   0  0  2  0  0  0  0  0  0  0  0  0
   13.8031   -5.8166   30.3428 F   0  0  0  0  0  0  0  0  0  0  0  0
   12.3414   -6.5925   25.4813 N   0  0  0  0  0  0  0  0  0  0  0  0
   14.9879   -9.9275   30.7656 N   0  0  0  0  0  0  0  0  0  0  0  0
   18.0154  -12.5424   24.2564 N   0  0  0  0  0  0  0  0  0  0  0  0
   16.9863   -7.7757   25.4224 N   0  0  0  0  0  0  0  0  0  0  0  0
   14.4801   -8.4569   26.1980 O   0  0  0  0  0  0  0  0  0  0  0  0
   13.7802  -11.3284   26.7744 O   0  0  0  0  0  0  0  0  0  0  0  0
   15.3175  -13.2392   25.2209 O   0  0  0  0  0  0  0  0  0  0  0  0
   12.4803   -5.1018   27.9224 O   0  0  0  0  0  0  0  0  0  0  0  0
   13.4429   -9.0327   28.2928 O   0  0  0  0  0  0  0  0  0  0  0  0
  1  5  1  0  0  0  0
  1 18  1  1  0  0  0
  2 18  1  6  0  0  0
  2  3  1  0  0  0  0
  2 12  1  0  0  0  0
  3 19  1  1  0  0  0
  3  4  1  0  0  0  0
  4 20  1  6  0  0  0
  4 10  1  0  0  0  0
  5  6  1  0  0  0  0
  5 14  1  6  0  0  0
  6 21  1  1  0  0  0
  7 13  1  1  0  0  0
  7  6  1  0  0  0  0
  8  9  1  1  0  0  0
  8  7  1  0  0  0  0
 10 16  1  1  0  0  0
 11 10  1  0  0  0  0
 12 17  1  1  0  0  0
 12 11  1  0  0  0  0
 15  9  1  0  0  0  0
 22  8  1  0  0  0  0
 22  1  1  0  0  0  0
M  END
>  <CHROM.1>
174.63200153,47.81234455,-179.05287131,14.63879713,-8.97590039,27.03380767
3.00150211,-1.09307944,2.08707919

>  <Name>
lig.pdb

>  <RI>
0

>  <Rbt.Current_Directory>
/home/itssahil/PROJECTS/Mol_Feturizer/New_Systems/rnas/5bxk

>  <Rbt.Executable>
rbdock ($Id: //depot/dev/client3/rdock/2013.1/src/exe/rbdock.cxx#4 $)

>  <Rbt.Library>
libRbt.so (2013.1, Build901 2013/11/27)

>  <Rbt.Parameter_File>
/export/apps/rDock/src/rDock_2013.1_src/data/scripts/dock_solv.prm

>  <Rbt.Receptor>
prm/pocket_docking_6.prm

>  <SCORE>
-11.1061

>  <SCORE.INTER>
-7.35933

>  <SCORE.INTER.CONST>
1

>  <SCORE.INTER.POLAR>
0

>  <SCORE.INTER.ROT>
3

>  <SCORE.INTER.SOLV>
14.7938

>  <SCORE.INTER.VDW>
-15.4375

>  <SCORE.INTER.norm>
-0.334515

>  <SCORE.INTRA>
-3.74681

>  <SCORE.INTRA.DIHEDRAL>
-6.19713

>  <SCORE.INTRA.DIHEDRAL.0>
7.18044

>  <SCORE.INTRA.POLAR>
0

>  <SCORE.INTRA.POLAR.0>
0

>  <SCORE.INTRA.REPUL>
0

>  <SCORE.INTRA.REPUL.0>
0

>  <SCORE.INTRA.SOLV>
-1.72529

>  <SCORE.INTRA.SOLV.lig_0>
-72.0615

>  <SCORE.INTRA.VDW>
0.214394

>  <SCORE.INTRA.VDW.0>
-1.54792

>  <SCORE.INTRA.norm>
-0.17031

>  <SCORE.RESTR>
0

>  <SCORE.RESTR.CAVITY>
0

>  <SCORE.RESTR.norm>
0

>  <SCORE.SYSTEM>
0

>  <SCORE.SYSTEM.CONST>
0

>  <SCORE.SYSTEM.DIHEDRAL>
0

>  <SCORE.SYSTEM.SOLV>
0

>  <SCORE.SYSTEM.norm>
0

>  <SCORE.heavy>
22

>  <SCORE.norm>
-0.504825

>  <RMSD>
6.563

$$$$
lig.pdb
 OpenBabel11021811523D
libRbt.so/2013.1/901 2013/11/27
 22 23  0  0  0  0  0  0  0  0999 V2000
   13.2713   -8.4687   26.8491 C   0  0  1  0  0  0  0  0  0  0  0  0
   15.4026   -9.5209   26.0751 C   0  0  1  0  0  0  0  0  0  0  0  0
   14.7164  -10.9505   25.6573 C   0  0  1  0  0  0  0  0  0  0  0  0
   15.8957  -12.0433   25.5575 C   0  0  2  0  0  0  0  0  0  0  0  0
   12.4400   -7.1099   26.9302 C   0  0  1  0  0  0  0  0  0  0  0  0
   13.1688   -6.0699   27.8676 C   0  0  2  0  0  0  0  0  0  0  0  0
   13.2517   -6.6931   29.3464 C   0  0  1  0  0  0  0  0  0  0  0  0
   14.1488   -8.0422   29.3340 C   0  0  1  0  0  0  0  0  0  0  0  0
   14.2937   -8.7104   30.7293 C   0  0  0  0  0  0  0  0  0  0  0  0
   16.8878  -11.5799   24.3814 C   0  0  1  0  0  0  0  0  0  0  0  0
   17.5301  -10.1678   24.8194 C   0  0  0  0  0  0  0  0  0  0  0  0
   16.3988   -9.0652   24.9821 C   0  0  2  0  0  0  0  0  0  0  0  0
   13.9003   -5.7746   30.2883 F   0  0  0  0  0  0  0  0  0  0  0  0
   12.3045   -6.6196   25.4807 N   0  0  0  0  0  0  0  0  0  0  0  0
   15.1353   -9.8504   30.7482 N   0  0  0  0  0  0  0  0  0  0  0  0
   18.0204  -12.5492   24.2429 N   0  0  0  0  0  0  0  0  0  0  0  0
   16.9657   -7.7846   25.3945 N   0  0  0  0  0  0  0  0  0  0  0  0
   14.4609   -8.4757   26.1654 O   0  0  0  0  0  0  0  0  0  0  0  0
   13.7731  -11.3491   26.7471 O   0  0  0  0  0  0  0  0  0  0  0  0
   15.3233  -13.2564   25.2022 O   0  0  0  0  0  0  0  0  0  0  0  0
   12.5117   -5.0937   27.8951 O   0  0  0  0  0  0  0  0  0  0  0  0
   13.4814   -9.0199   28.2962 O   0  0  0  0  0  0  0  0  0  0  0  0
  1  5  1  0  0  0  0
  1 18  1  1  0  0  0
  2 18  1  6  0  0  0
  2  3  1  0  0  0  0
  2 12  1  0  0  0  0
  3 19  1  1  0  0  0
  3  4  1  0  0  0  0
  4 20  1  6  0  0  0
  4 10  1  0  0  0  0
  5  6  1  0  0  0  0
  5 14  1  6  0  0  0
  6 21  1  1  0  0  0
  7 13  1  1  0  0  0
  7  6  1  0  0  0  0
  8  9  1  1  0  0  0
  8  7  1  0  0  0  0
 10 16  1  1  0  0  0
 11 10  1  0  0  0  0
 12 17  1  1  0  0  0
 12 11  1  0  0  0  0
 15  9  1  0  0  0  0
 22  8  1  0  0  0  0
 22  1  1  0  0  0  0
M  END
>  <CHROM.1>
173.65358864,50.13784216,-176.72833269,14.66149580,-8.97278560,27.01242734
2.92041236,-1.09585266,1.99027214

>  <Name>
lig.pdb

>  <RI>
0

>  <Rbt.Current_Directory>
/home/itssahil/PROJECTS/Mol_Feturizer/New_Systems/rnas/5bxk

>  <Rbt.Executable>
rbdock ($Id: //depot/dev/client3/rdock/2013.1/src/exe/rbdock.cxx#4 $)

>  <Rbt.Library>
libRbt.so (2013.1, Build901 2013/11/27)

>  <Rbt.Parameter_File>
/export/apps/rDock/src/rDock_2013.1_src/data/scripts/dock_solv.prm

>  <Rbt.Receptor>
prm/pocket_docking_7.prm

>  <SCORE>
-11.2072

>  <SCORE.INTER>
-7.33252

>  <SCORE.INTER.CONST>
1

>  <SCORE.INTER.POLAR>
0

>  <SCORE.INTER.ROT>
3

>  <SCORE.INTER.SOLV>
14.8882

>  <SCORE.INTER.VDW>
-15.4511

>  <SCORE.INTER.norm>
-0.333296

>  <SCORE.INTRA>
-3.8747

>  <SCORE.INTRA.DIHEDRAL>
-6.34674

>  <SCORE.INTRA.DIHEDRAL.0>
7.18044

>  <SCORE.INTRA.POLAR>
0

>  <SCORE.INTRA.POLAR.0>
0

>  <SCORE.INTRA.REPUL>
0

>  <SCORE.INTRA.REPUL.0>
0

>  <SCORE.INTRA.SOLV>
-1.76873

>  <SCORE.INTRA.SOLV.lig_0>
-72.0615

>  <SCORE.INTRA.VDW>
0.183034

>  <SCORE.INTRA.VDW.0>
-1.54792

>  <SCORE.INTRA.norm>
-0.176123

>  <SCORE.RESTR>
0

>  <SCORE.RESTR.CAVITY>
0

>  <SCORE.RESTR.norm>
0

>  <SCORE.SYSTEM>
0

>  <SCORE.SYSTEM.CONST>
0

>  <SCORE.SYSTEM.DIHEDRAL>
0

>  <SCORE.SYSTEM.SOLV>
0

>  <SCORE.SYSTEM.norm>
0

>  <SCORE.heavy>
22

>  <SCORE.norm>
-0.509419

>  <RMSD>
6.563

$$$$
lig.pdb
 OpenBabel11021811523D
libRbt.so/2013.1/901 2013/11/27
 22 23  0  0  0  0  0  0  0  0999 V2000
   13.2793   -8.4589   26.8210 C   0  0  1  0  0  0  0  0  0  0  0  0
   15.4195   -9.5176   26.0814 C   0  0  1  0  0  0  0  0  0  0  0  0
   14.7200  -10.9422   25.6684 C   0  0  1  0  0  0  0  0  0  0  0  0
   15.8895  -12.0456   25.5697 C   0  0  2  0  0  0  0  0  0  0  0  0
   12.4519   -7.0972   26.8945 C   0  0  1  0  0  0  0  0  0  0  0  0
   13.1591   -6.0711   27.8632 C   0  0  2  0  0  0  0  0  0  0  0  0
   13.1984   -6.7112   29.3367 C   0  0  1  0  0  0  0  0  0  0  0  0
   14.0895   -8.0642   29.3338 C   0  0  1  0  0  0  0  0  0  0  0  0
   14.1929   -8.7487   30.7250 C   0  0  0  0  0  0  0  0  0  0  0  0
   16.8840  -11.5942   24.3910 C   0  0  1  0  0  0  0  0  0  0  0  0
   17.5393  -10.1866   24.8243 C   0  0  0  0  0  0  0  0  0  0  0  0
   16.4181   -9.0736   24.9857 C   0  0  2  0  0  0  0  0  0  0  0  0
   13.8247   -5.8063   30.3064 F   0  0  0  0  0  0  0  0  0  0  0  0
   12.3587   -6.5902   25.4474 N   0  0  0  0  0  0  0  0  0  0  0  0
   15.0010   -9.9125   30.7465 N   0  0  0  0  0  0  0  0  0  0  0  0
   18.0077  -12.5738   24.2534 N   0  0  0  0  0  0  0  0  0  0  0  0
   16.9969   -7.7970   25.3939 N   0  0  0  0  0  0  0  0  0  0  0  0
   14.4872   -8.4639   26.1703 O   0  0  0  0  0  0  0  0  0  0  0  0
   13.7749  -11.3296   26.7606 O   0  0  0  0  0  0  0  0  0  0  0  0
   15.3059  -13.2546   25.2185 O   0  0  0  0  0  0  0  0  0  0  0  0
   12.5059   -5.0922   27.8836 O   0  0  0  0  0  0  0  0  0  0  0  0
   13.4468   -9.0272   28.2670 O   0  0  0  0  0  0  0  0  0  0  0  0
  1  5  1  0  0  0  0
  1 18  1  1  0  0  0
  2 18  1  6  0  0  0
  2  3  1  0  0  0  0
  2 12  1  0  0  0  0
  3 19  1  1  0  0  0
  3  4  1  0  0  0  0
  4 20  1  6  0  0  0
  4 10  1  0  0  0  0
  5  6  1  0  0  0  0
  5 14  1  6  0  0  0
  6 21  1  1  0  0  0
  7 13  1  1  0  0  0
  7  6  1  0  0  0  0
  8  9  1  1  0  0  0
  8  7  1  0  0  0  0
 10 16  1  1  0  0  0
 11 10  1  0  0  0  0
 12 17  1  1  0  0  0
 12 11  1  0  0  0  0
 15  9  1  0  0  0  0
 22  8  1  0  0  0  0
 22  1  1  0  0  0  0
M  END
>  <CHROM.1>
174.45350207,47.89352589,-178.27315784,14.64552470,-8.98032402,27.01066430
3.00410809,-1.09658038,2.08399175

>  <Name>
lig.pdb

>  <RI>
0

>  <Rbt.Current_Directory>
/home/itssahil/PROJECTS/Mol_Feturizer/New_Systems/rnas/5bxk

>  <Rbt.Executable>
rbdock ($Id: //depot/dev/client3/rdock/2013.1/src/exe/rbdock.cxx#4 $)

>  <Rbt.Library>
libRbt.so (2013.1, Build901 2013/11/27)

>  <Rbt.Parameter_File>
/export/apps/rDock/src/rDock_2013.1_src/data/scripts/dock_solv.prm

>  <Rbt.Receptor>
prm/pocket_docking_6.prm

>  <SCORE>
-11.1333

>  <SCORE.INTER>
-7.38592

>  <SCORE.INTER.CONST>
1

>  <SCORE.INTER.POLAR>
0

>  <SCORE.INTER.ROT>
3

>  <SCORE.INTER.SOLV>
14.8579

>  <SCORE.INTER.VDW>
-15.4766

>  <SCORE.INTER.norm>
-0.335723

>  <SCORE.INTRA>
-3.74736

>  <SCORE.INTRA.DIHEDRAL>
-6.18939

>  <SCORE.INTRA.DIHEDRAL.0>
7.18044

>  <SCORE.INTRA.POLAR>
0

>  <SCORE.INTRA.POLAR.0>
0

>  <SCORE.INTRA.REPUL>
0

>  <SCORE.INTRA.REPUL.0>
0

>  <SCORE.INTRA.SOLV>
-1.73405

>  <SCORE.INTRA.SOLV.lig_0>
-72.0615

>  <SCORE.INTRA.VDW>
0.214362

>  <SCORE.INTRA.VDW.0>
-1.54792

>  <SCORE.INTRA.norm>
-0.170335

>  <SCORE.RESTR>
0

>  <SCORE.RESTR.CAVITY>
0

>  <SCORE.RESTR.norm>
0

>  <SCORE.SYSTEM>
0

>  <SCORE.SYSTEM.CONST>
0

>  <SCORE.SYSTEM.DIHEDRAL>
0

>  <SCORE.SYSTEM.SOLV>
0

>  <SCORE.SYSTEM.norm>
0

>  <SCORE.heavy>
22

>  <SCORE.norm>
-0.506058

>  <RMSD>
6.564

$$$$
lig.pdb
 OpenBabel11021811523D
libRbt.so/2013.1/901 2013/11/27
 22 23  0  0  0  0  0  0  0  0999 V2000
   13.2816   -8.4700   26.9101 C   0  0  1  0  0  0  0  0  0  0  0  0
   15.4200   -9.5130   26.1433 C   0  0  1  0  0  0  0  0  0  0  0  0
   14.7309  -10.9286   25.6845 C   0  0  1  0  0  0  0  0  0  0  0  0
   15.9055  -12.0254   25.5726 C   0  0  2  0  0  0  0  0  0  0  0  0
   12.4318   -7.1215   26.9703 C   0  0  1  0  0  0  0  0  0  0  0  0
   13.1309   -6.0681   27.9153 C   0  0  2  0  0  0  0  0  0  0  0  0
   13.1958   -6.6837   29.3983 C   0  0  1  0  0  0  0  0  0  0  0  0
   14.1099   -8.0212   29.4079 C   0  0  1  0  0  0  0  0  0  0  0  0
   14.2388   -8.6814   30.8086 C   0  0  0  0  0  0  0  0  0  0  0  0
   16.9136  -11.5404   24.4192 C   0  0  1  0  0  0  0  0  0  0  0  0
   17.5583  -10.1425   24.8973 C   0  0  0  0  0  0  0  0  0  0  0  0
   16.4312   -9.0376   25.0727 C   0  0  2  0  0  0  0  0  0  0  0  0
   13.8161   -5.7528   30.3470 F   0  0  0  0  0  0  0  0  0  0  0  0
   12.3155   -6.6395   25.5164 N   0  0  0  0  0  0  0  0  0  0  0  0
   15.0261   -9.8595   30.8307 N   0  0  0  0  0  0  0  0  0  0  0  0
   18.0425  -12.5126   24.2709 N   0  0  0  0  0  0  0  0  0  0  0  0
   17.0002   -7.7702   25.5213 N   0  0  0  0  0  0  0  0  0  0  0  0
   14.4829   -8.4649   26.2472 O   0  0  0  0  0  0  0  0  0  0  0  0
   13.7730  -11.3472   26.7538 O   0  0  0  0  0  0  0  0  0  0  0  0
   15.3307  -13.2267   25.1826 O   0  0  0  0  0  0  0  0  0  0  0  0
   12.4612   -5.1003   27.9269 O   0  0  0  0  0  0  0  0  0  0  0  0
   13.4732   -9.0120   28.3631 O   0  0  0  0  0  0  0  0  0  0  0  0
  1  5  1  0  0  0  0
  1 18  1  1  0  0  0
  2 18  1  6  0  0  0
  2  3  1  0  0  0  0
  2 12  1  0  0  0  0
  3 19  1  1  0  0  0
  3  4  1  0  0  0  0
  4 20  1  6  0  0  0
  4 10  1  0  0  0  0
  5  6  1  0  0  0  0
  5 14  1  6  0  0  0
  6 21  1  1  0  0  0
  7 13  1  1  0  0  0
  7  6  1  0  0  0  0
  8  9  1  1  0  0  0
  8  7  1  0  0  0  0
 10 16  1  1  0  0  0
 11 10  1  0  0  0  0
 12 17  1  1  0  0  0
 12 11  1  0  0  0  0
 15  9  1  0  0  0  0
 22  8  1  0  0  0  0
 22  1  1  0  0  0  0
M  END
>  <CHROM.1>
175.84281208,49.67274979,179.46708056,14.65055540,-8.96023958,27.06513849
2.93869283,-1.09032581,2.01869911

>  <Name>
lig.pdb

>  <RI>
0

>  <Rbt.Current_Directory>
/home/itssahil/PROJECTS/Mol_Feturizer/New_Systems/rnas/5bxk

>  <Rbt.Executable>
rbdock ($Id: //depot/dev/client3/rdock/2013.1/src/exe/rbdock.cxx#4 $)

>  <Rbt.Library>
libRbt.so (2013.1, Build901 2013/11/27)

>  <Rbt.Parameter_File>
/export/apps/rDock/src/rDock_2013.1_src/data/scripts/dock_solv.prm

>  <Rbt.Receptor>
prm/pocket_docking_6.prm

>  <SCORE>
-11.2148

>  <SCORE.INTER>
-7.30122

>  <SCORE.INTER.CONST>
1

>  <SCORE.INTER.POLAR>
0

>  <SCORE.INTER.ROT>
3

>  <SCORE.INTER.SOLV>
14.3878

>  <SCORE.INTER.VDW>
-15.2634

>  <SCORE.INTER.norm>
-0.331874

>  <SCORE.INTRA>
-3.91359

>  <SCORE.INTRA.DIHEDRAL>
-6.44873

>  <SCORE.INTRA.DIHEDRAL.0>
7.18044

>  <SCORE.INTRA.POLAR>
0

>  <SCORE.INTRA.POLAR.0>
0

>  <SCORE.INTRA.REPUL>
0

>  <SCORE.INTRA.REPUL.0>
0

>  <SCORE.INTRA.SOLV>
-1.73672

>  <SCORE.INTRA.SOLV.lig_0>
-72.0615

>  <SCORE.INTRA.VDW>
0.179128

>  <SCORE.INTRA.VDW.0>
-1.54792

>  <SCORE.INTRA.norm>
-0.177891

>  <SCORE.RESTR>
0

>  <SCORE.RESTR.CAVITY>
0

>  <SCORE.RESTR.norm>
0

>  <SCORE.SYSTEM>
0

>  <SCORE.SYSTEM.CONST>
0

>  <SCORE.SYSTEM.DIHEDRAL>
0

>  <SCORE.SYSTEM.SOLV>
0

>  <SCORE.SYSTEM.norm>
0

>  <SCORE.heavy>
22

>  <SCORE.norm>
-0.509764

>  <RMSD>
6.567

$$$$
lig.pdb
 OpenBabel11021811523D
libRbt.so/2013.1/901 2013/11/27
 22 23  0  0  0  0  0  0  0  0999 V2000
   13.8954   -9.5680   27.3675 C   0  0  1  0  0  0  0  0  0  0  0  0
   15.8357  -10.5326   26.1214 C   0  0  1  0  0  0  0  0  0  0  0  0
   15.0676  -11.8726   25.5705 C   0  0  1  0  0  0  0  0  0  0  0  0
   16.1975  -12.9481   25.1682 C   0  0  2  0  0  0  0  0  0  0  0  0
   13.1309   -8.2216   27.7509 C   0  0  1  0  0  0  0  0  0  0  0  0
   14.0472   -7.3005   28.6472 C   0  0  2  0  0  0  0  0  0  0  0  0
   14.3812   -8.0892   30.0069 C   0  0  1  0  0  0  0  0  0  0  0  0
   15.2231   -9.4342   29.6796 C   0  0  1  0  0  0  0  0  0  0  0  0
   15.6015  -10.2584   30.9413 C   0  0  0  0  0  0  0  0  0  0  0  0
   17.0635  -12.3166   23.9710 C   0  0  1  0  0  0  0  0  0  0  0  0
   17.7898  -10.9966   24.5441 C   0  0  0  0  0  0  0  0  0  0  0  0
   16.7150   -9.9217   25.0040 C   0  0  2  0  0  0  0  0  0  0  0  0
   15.2161   -7.2887   30.9090 F   0  0  0  0  0  0  0  0  0  0  0  0
   12.7469   -7.5681   26.4148 N   0  0  0  0  0  0  0  0  0  0  0  0
   14.4960  -10.6612   31.7310 N   0  0  0  0  0  0  0  0  0  0  0  0
   18.1461  -13.2635   23.5551 N   0  0  0  0  0  0  0  0  0  0  0  0
   17.3600   -8.7270   25.5405 N   0  0  0  0  0  0  0  0  0  0  0  0
   14.9395   -9.5052   26.4796 O   0  0  0  0  0  0  0  0  0  0  0  0
   14.2421  -12.4272   26.6874 O   0  0  0  0  0  0  0  0  0  0  0  0
   15.5554  -14.0851   24.6988 O   0  0  0  0  0  0  0  0  0  0  0  0
   13.4337   -6.3293   28.9037 O   0  0  0  0  0  0  0  0  0  0  0  0
   14.3505  -10.2823   28.6807 O   0  0  0  0  0  0  0  0  0  0  0  0
  1  5  1  0  0  0  0
  1 18  1  6  0  0  0
  2 18  1  6  0  0  0
  2  3  1  0  0  0  0
  2 12  1  0  0  0  0
  3 19  1  1  0  0  0
  3  4  1  0  0  0  0
  4 20  1  6  0  0  0
  4 10  1  0  0  0  0
  5  6  1  0  0  0  0
  5 14  1  6  0  0  0
  6 21  1  1  0  0  0
  7 13  1  1  0  0  0
  7  6  1  0  0  0  0
  8  9  1  1  0  0  0
  8  7  1  0  0  0  0
 10 16  1  1  0  0  0
 11 10  1  0  0  0  0
 12 17  1  1  0  0  0
 12 11  1  0  0  0  0
 15  9  1  0  0  0  0
 22  8  1  0  0  0  0
 22  1  1  0  0  0  0
M  END
>  <CHROM.1>
172.28628639,55.55396514,57.44638020,15.22597309,-10.04439727,27.26302293
2.96682634,-1.22243061,2.26497751

>  <Name>
lig.pdb

>  <RI>
0

>  <Rbt.Current_Directory>
/home/itssahil/PROJECTS/Mol_Feturizer/New_Systems/rnas/5bxk

>  <Rbt.Executable>
rbdock ($Id: //depot/dev/client3/rdock/2013.1/src/exe/rbdock.cxx#4 $)

>  <Rbt.Library>
libRbt.so (2013.1, Build901 2013/11/27)

>  <Rbt.Parameter_File>
/export/apps/rDock/src/rDock_2013.1_src/data/scripts/dock_solv.prm

>  <Rbt.Receptor>
prm/pocket_docking_8.prm

>  <SCORE>
-11.5169

>  <SCORE.INTER>
-7.87904

>  <SCORE.INTER.CONST>
1

>  <SCORE.INTER.POLAR>
0

>  <SCORE.INTER.ROT>
3

>  <SCORE.INTER.SOLV>
17.0949

>  <SCORE.INTER.VDW>
-16.551

>  <SCORE.INTER.norm>
-0.358138

>  <SCORE.INTRA>
-3.63783

>  <SCORE.INTRA.DIHEDRAL>
-6.64604

>  <SCORE.INTRA.DIHEDRAL.0>
7.18044

>  <SCORE.INTRA.POLAR>
0

>  <SCORE.INTRA.POLAR.0>
0

>  <SCORE.INTRA.REPUL>
0

>  <SCORE.INTRA.REPUL.0>
0

>  <SCORE.INTRA.SOLV>
-0.706569

>  <SCORE.INTRA.SOLV.lig_0>
-72.0615

>  <SCORE.INTRA.VDW>
0.0384799

>  <SCORE.INTRA.VDW.0>
-1.54792

>  <SCORE.INTRA.norm>
-0.165356

>  <SCORE.RESTR>
0

>  <SCORE.RESTR.CAVITY>
0

>  <SCORE.RESTR.norm>
0

>  <SCORE.SYSTEM>
0

>  <SCORE.SYSTEM.CONST>
0

>  <SCORE.SYSTEM.DIHEDRAL>
0

>  <SCORE.SYSTEM.SOLV>
0

>  <SCORE.SYSTEM.norm>
0

>  <SCORE.heavy>
22

>  <SCORE.norm>
-0.523494

>  <RMSD>
6.569

$$$$
lig.pdb
 OpenBabel11021811523D
libRbt.so/2013.1/901 2013/11/27
 22 23  0  0  0  0  0  0  0  0999 V2000
   14.4005   -9.3569   27.5791 C   0  0  1  0  0  0  0  0  0  0  0  0
   15.9552  -10.5740   26.0461 C   0  0  1  0  0  0  0  0  0  0  0  0
   15.0678  -11.8856   25.6200 C   0  0  1  0  0  0  0  0  0  0  0  0
   16.0958  -13.0394   25.1651 C   0  0  2  0  0  0  0  0  0  0  0  0
   13.6186   -7.9906   27.8359 C   0  0  1  0  0  0  0  0  0  0  0  0
   14.6306   -6.8302   28.1831 C   0  0  2  0  0  0  0  0  0  0  0  0
   15.4063   -7.2228   29.5346 C   0  0  1  0  0  0  0  0  0  0  0  0
   16.2771   -8.5699   29.3070 C   0  0  1  0  0  0  0  0  0  0  0  0
   17.0729   -9.0206   30.5632 C   0  0  0  0  0  0  0  0  0  0  0  0
   16.8848  -12.5034   23.8719 C   0  0  1  0  0  0  0  0  0  0  0  0
   17.7314  -11.2085   24.3245 C   0  0  0  0  0  0  0  0  0  0  0  0
   16.7632  -10.0565   24.8320 C   0  0  2  0  0  0  0  0  0  0  0  0
   16.3558   -6.1807   29.9393 F   0  0  0  0  0  0  0  0  0  0  0  0
   12.8170   -7.7243   26.5529 N   0  0  0  0  0  0  0  0  0  0  0  0
   18.0551   -8.0959   30.9972 N   0  0  0  0  0  0  0  0  0  0  0  0
   17.8716  -13.5267   23.4022 N   0  0  0  0  0  0  0  0  0  0  0  0
   17.5188   -8.8832   25.2604 N   0  0  0  0  0  0  0  0  0  0  0  0
   15.1528   -9.4834   26.4387 O   0  0  0  0  0  0  0  0  0  0  0  0
   14.3163  -12.3501   26.8267 O   0  0  0  0  0  0  0  0  0  0  0  0
   15.3524  -14.1529   24.8008 O   0  0  0  0  0  0  0  0  0  0  0  0
   14.0019   -5.8525   28.3677 O   0  0  0  0  0  0  0  0  0  0  0  0
   15.2709   -9.6849   28.8348 O   0  0  0  0  0  0  0  0  0  0  0  0
  1  5  1  0  0  0  0
  1 18  1  6  0  0  0
  2 18  1  6  0  0  0
  2  3  1  0  0  0  0
  2 12  1  0  0  0  0
  3 19  1  1  0  0  0
  3  4  1  0  0  0  0
  4 20  1  6  0  0  0
  4 10  1  0  0  0  0
  5  6  1  0  0  0  0
  5 14  1  6  0  0  0
  6 21  1  1  0  0  0
  7 13  1  6  0  0  0
  7  6  1  0  0  0  0
  8  9  1  1  0  0  0
  8  7  1  0  0  0  0
 10 16  1  1  0  0  0
 11 10  1  0  0  0  0
 12 17  1  1  0  0  0
 12 11  1  0  0  0  0
 15  9  1  0  0  0  0
 22  8  1  0  0  0  0
 22  1  1  0  0  0  0
M  END
>  <CHROM.1>
177.37685226,70.55032730,-62.91499798,15.74303962,-9.69543821,27.06764400
1.70785792,-0.41974062,0.77611796

>  <Name>
lig.pdb

>  <RI>
0

>  <Rbt.Current_Directory>
/home/itssahil/PROJECTS/Mol_Feturizer/New_Systems/rnas/5bxk

>  <Rbt.Executable>
rbdock ($Id: //depot/dev/client3/rdock/2013.1/src/exe/rbdock.cxx#4 $)

>  <Rbt.Library>
libRbt.so (2013.1, Build901 2013/11/27)

>  <Rbt.Parameter_File>
/export/apps/rDock/src/rDock_2013.1_src/data/scripts/dock_solv.prm

>  <Rbt.Receptor>
prm/pocket_docking_4.prm

>  <SCORE>
-9.06781

>  <SCORE.INTER>
-5.52083

>  <SCORE.INTER.CONST>
1

>  <SCORE.INTER.POLAR>
0

>  <SCORE.INTER.ROT>
3

>  <SCORE.INTER.SOLV>
14.6378

>  <SCORE.INTER.VDW>
-14.1598

>  <SCORE.INTER.norm>
-0.250947

>  <SCORE.INTRA>
-3.54698

>  <SCORE.INTRA.DIHEDRAL>
-6.44685

>  <SCORE.INTRA.DIHEDRAL.0>
7.18044

>  <SCORE.INTRA.POLAR>
0

>  <SCORE.INTRA.POLAR.0>
0

>  <SCORE.INTRA.REPUL>
0

>  <SCORE.INTRA.REPUL.0>
0

>  <SCORE.INTRA.SOLV>
-0.720223

>  <SCORE.INTRA.SOLV.lig_0>
-72.0615

>  <SCORE.INTRA.VDW>
0.0365547

>  <SCORE.INTRA.VDW.0>
-1.54792

>  <SCORE.INTRA.norm>
-0.161226

>  <SCORE.RESTR>
0

>  <SCORE.RESTR.CAVITY>
0

>  <SCORE.RESTR.norm>
0

>  <SCORE.SYSTEM>
0

>  <SCORE.SYSTEM.CONST>
0

>  <SCORE.SYSTEM.DIHEDRAL>
0

>  <SCORE.SYSTEM.SOLV>
0

>  <SCORE.SYSTEM.norm>
0

>  <SCORE.heavy>
22

>  <SCORE.norm>
-0.412173

>  <RMSD>
6.570

$$$$
lig.pdb
 OpenBabel11021811523D
libRbt.so/2013.1/901 2013/11/27
 22 23  0  0  0  0  0  0  0  0999 V2000
   18.4703   -7.3006   26.7233 C   0  0  1  0  0  0  0  0  0  0  0  0
   16.7297   -8.9934   26.1293 C   0  0  1  0  0  0  0  0  0  0  0  0
   17.7461  -10.2484   25.8439 C   0  0  1  0  0  0  0  0  0  0  0  0
   16.9534  -11.3171   24.9358 C   0  0  2  0  0  0  0  0  0  0  0  0
   19.0082   -6.3255   27.8652 C   0  0  1  0  0  0  0  0  0  0  0  0
   18.0770   -5.0577   27.9948 C   0  0  2  0  0  0  0  0  0  0  0  0
   18.1117   -4.2599   26.6003 C   0  0  1  0  0  0  0  0  0  0  0  0
   17.5070   -5.1829   25.4140 C   0  0  1  0  0  0  0  0  0  0  0  0
   17.4908   -4.4862   24.0252 C   0  0  0  0  0  0  0  0  0  0  0  0
   15.7013  -11.8470   25.7923 C   0  0  1  0  0  0  0  0  0  0  0  0
   14.7347  -10.5864   26.0658 C   0  0  0  0  0  0  0  0  0  0  0  0
   15.4887   -9.4776   26.9168 C   0  0  2  0  0  0  0  0  0  0  0  0
   17.2836   -3.0500   26.6449 F   0  0  0  0  0  0  0  0  0  0  0  0
   19.0517   -7.1718   29.1465 N   0  0  0  0  0  0  0  0  0  0  0  0
   16.8532   -5.2324   23.0031 N   0  0  0  0  0  0  0  0  0  0  0  0
   14.9093  -12.8390   24.9985 N   0  0  0  0  0  0  0  0  0  0  0  0
   14.6290   -8.3226   27.1579 N   0  0  0  0  0  0  0  0  0  0  0  0
   17.3118   -8.0016   26.9446 O   0  0  0  0  0  0  0  0  0  0  0  0
   18.9195   -9.7303   25.0751 O   0  0  0  0  0  0  0  0  0  0  0  0
   17.8064  -12.3839   24.6912 O   0  0  0  0  0  0  0  0  0  0  0  0
   18.5221   -4.3739   28.8431 O   0  0  0  0  0  0  0  0  0  0  0  0
   18.3662   -6.5018   25.3843 O   0  0  0  0  0  0  0  0  0  0  0  0
  1  5  1  0  0  0  0
  1 18  1  1  0  0  0
  2 18  1  1  0  0  0
  2  3  1  0  0  0  0
  2 12  1  0  0  0  0
  3 19  1  6  0  0  0
  3  4  1  0  0  0  0
  4 20  1  1  0  0  0
  4 10  1  0  0  0  0
  5  6  1  0  0  0  0
  5 14  1  1  0  0  0
  6 21  1  1  0  0  0
  7 13  1  1  0  0  0
  7  6  1  0  0  0  0
  8  9  1  6  0  0  0
  8  7  1  0  0  0  0
 10 16  1  6  0  0  0
 11 10  1  0  0  0  0
 12 17  1  6  0  0  0
 12 11  1  0  0  0  0
 15  9  1  0  0  0  0
 22  8  1  0  0  0  0
 22  1  1  0  0  0  0
M  END
>  <CHROM.1>
-173.94359755,57.07762703,-174.47577691,17.28374149,-7.77936400,26.19042621
-0.79171993,1.22423039,2.57918523

>  <Name>
lig.pdb

>  <RI>
0

>  <Rbt.Current_Directory>
/home/itssahil/PROJECTS/Mol_Feturizer/New_Systems/rnas/5bxk

>  <Rbt.Executable>
rbdock ($Id: //depot/dev/client3/rdock/2013.1/src/exe/rbdock.cxx#4 $)

>  <Rbt.Library>
libRbt.so (2013.1, Build901 2013/11/27)

>  <Rbt.Parameter_File>
/export/apps/rDock/src/rDock_2013.1_src/data/scripts/dock_solv.prm

>  <Rbt.Receptor>
prm/pocket_docking_6.prm

>  <SCORE>
-8.3044

>  <SCORE.INTER>
-4.13756

>  <SCORE.INTER.CONST>
1

>  <SCORE.INTER.POLAR>
0

>  <SCORE.INTER.ROT>
3

>  <SCORE.INTER.SOLV>
14.7317

>  <SCORE.INTER.VDW>
-13.2689

>  <SCORE.INTER.norm>
-0.188071

>  <SCORE.INTRA>
-4.16684

>  <SCORE.INTRA.DIHEDRAL>
-6.71941

>  <SCORE.INTRA.DIHEDRAL.0>
7.18044

>  <SCORE.INTRA.POLAR>
0

>  <SCORE.INTRA.POLAR.0>
0

>  <SCORE.INTRA.REPUL>
0

>  <SCORE.INTRA.REPUL.0>
0

>  <SCORE.INTRA.SOLV>
-1.90262

>  <SCORE.INTRA.SOLV.lig_0>
-72.0615

>  <SCORE.INTRA.VDW>
0.144177

>  <SCORE.INTRA.VDW.0>
-1.54792

>  <SCORE.INTRA.norm>
-0.189402

>  <SCORE.RESTR>
0

>  <SCORE.RESTR.CAVITY>
0

>  <SCORE.RESTR.norm>
0

>  <SCORE.SYSTEM>
0

>  <SCORE.SYSTEM.CONST>
0

>  <SCORE.SYSTEM.DIHEDRAL>
0

>  <SCORE.SYSTEM.SOLV>
0

>  <SCORE.SYSTEM.norm>
0

>  <SCORE.heavy>
22

>  <SCORE.norm>
-0.377473

>  <RMSD>
6.570

$$$$
lig.pdb
 OpenBabel11021811523D
libRbt.so/2013.1/901 2013/11/27
 22 23  0  0  0  0  0  0  0  0999 V2000
   13.9609   -9.6783   27.7218 C   0  0  1  0  0  0  0  0  0  0  0  0
   15.6803  -10.5577   26.1347 C   0  0  1  0  0  0  0  0  0  0  0  0
   15.0375  -11.9772   25.6237 C   0  0  1  0  0  0  0  0  0  0  0  0
   16.2547  -12.9117   25.1333 C   0  0  2  0  0  0  0  0  0  0  0  0
   12.8223   -8.5831   27.9412 C   0  0  1  0  0  0  0  0  0  0  0  0
   13.4619   -7.1638   28.2020 C   0  0  2  0  0  0  0  0  0  0  0  0
   14.3420   -7.2445   29.5441 C   0  0  1  0  0  0  0  0  0  0  0  0
   15.5607   -8.2942   29.3501 C   0  0  1  0  0  0  0  0  0  0  0  0
   16.4751   -8.4296   30.5991 C   0  0  0  0  0  0  0  0  0  0  0  0
   16.9557  -12.1800   23.8862 C   0  0  1  0  0  0  0  0  0  0  0  0
   17.5608  -10.7853   24.4221 C   0  0  0  0  0  0  0  0  0  0  0  0
   16.4023   -9.8451   24.9661 C   0  0  2  0  0  0  0  0  0  0  0  0
   14.9571   -5.9533   29.8698 F   0  0  0  0  0  0  0  0  0  0  0  0
   11.9551   -8.6270   26.6741 N   0  0  0  0  0  0  0  0  0  0  0  0
   17.6058   -9.2626   30.4097 N   0  0  0  0  0  0  0  0  0  0  0  0
   18.1099  -12.9923   23.3869 N   0  0  0  0  0  0  0  0  0  0  0  0
   16.9389   -8.5842   25.4696 N   0  0  0  0  0  0  0  0  0  0  0  0
   14.6971   -9.6434   26.5645 O   0  0  0  0  0  0  0  0  0  0  0  0
   14.3622  -12.6276   26.7887 O   0  0  0  0  0  0  0  0  0  0  0  0
   15.7188  -14.1150   24.6971 O   0  0  0  0  0  0  0  0  0  0  0  0
   12.5809   -6.4000   28.3621 O   0  0  0  0  0  0  0  0  0  0  0  0
   14.9113   -9.6749   28.9622 O   0  0  0  0  0  0  0  0  0  0  0  0
  1  5  1  0  0  0  0
  1 18  1  6  0  0  0
  2 18  1  6  0  0  0
  2  3  1  0  0  0  0
  2 12  1  0  0  0  0
  3 19  1  1  0  0  0
  3  4  1  0  0  0  0
  4 20  1  6  0  0  0
  4 10  1  0  0  0  0
  5  6  1  0  0  0  0
  5 14  1  6  0  0  0
  6 21  1  1  0  0  0
  7 13  1  6  0  0  0
  7  6  1  0  0  0  0
  8  9  1  1  0  0  0
  8  7  1  0  0  0  0
 10 16  1  1  0  0  0
 11 10  1  0  0  0  0
 12 17  1  1  0  0  0
 12 11  1  0  0  0  0
 15  9  1  0  0  0  0
 22  8  1  0  0  0  0
 22  1  1  0  0  0  0
M  END
>  <CHROM.1>
-175.50433253,73.65137205,-175.23793713,15.26469121,-9.75623042,27.08460585
1.89174829,-0.25612730,0.82220349

>  <Name>
lig.pdb

>  <RI>
0

>  <Rbt.Current_Directory>
/home/itssahil/PROJECTS/Mol_Feturizer/New_Systems/rnas/5bxk

>  <Rbt.Executable>
rbdock ($Id: //depot/dev/client3/rdock/2013.1/src/exe/rbdock.cxx#4 $)

>  <Rbt.Library>
libRbt.so (2013.1, Build901 2013/11/27)

>  <Rbt.Parameter_File>
/export/apps/rDock/src/rDock_2013.1_src/data/scripts/dock_solv.prm

>  <Rbt.Receptor>
prm/pocket_docking_4.prm

>  <SCORE>
-8.53929

>  <SCORE.INTER>
-4.73977

>  <SCORE.INTER.CONST>
1

>  <SCORE.INTER.POLAR>
0

>  <SCORE.INTER.ROT>
3

>  <SCORE.INTER.SOLV>
20.9728

>  <SCORE.INTER.VDW>
-15.7508

>  <SCORE.INTER.norm>
-0.215444

>  <SCORE.INTRA>
-3.79952

>  <SCORE.INTRA.DIHEDRAL>
-5.98572

>  <SCORE.INTRA.DIHEDRAL.0>
7.18044

>  <SCORE.INTRA.POLAR>
0

>  <SCORE.INTRA.POLAR.0>
0

>  <SCORE.INTRA.REPUL>
0

>  <SCORE.INTRA.REPUL.0>
0

>  <SCORE.INTRA.SOLV>
-1.55218

>  <SCORE.INTRA.SOLV.lig_0>
-72.0615

>  <SCORE.INTRA.VDW>
-0.0305703

>  <SCORE.INTRA.VDW.0>
-1.54792

>  <SCORE.INTRA.norm>
-0.172705

>  <SCORE.RESTR>
0

>  <SCORE.RESTR.CAVITY>
0

>  <SCORE.RESTR.norm>
0

>  <SCORE.SYSTEM>
0

>  <SCORE.SYSTEM.CONST>
0

>  <SCORE.SYSTEM.DIHEDRAL>
0

>  <SCORE.SYSTEM.SOLV>
0

>  <SCORE.SYSTEM.norm>
0

>  <SCORE.heavy>
22

>  <SCORE.norm>
-0.38815

>  <RMSD>
6.571

$$$$
lig.pdb
 OpenBabel11021811523D
libRbt.so/2013.1/901 2013/11/27
 22 23  0  0  0  0  0  0  0  0999 V2000
   13.2848   -8.4636   26.8536 C   0  0  1  0  0  0  0  0  0  0  0  0
   15.4216   -9.5173   26.0970 C   0  0  1  0  0  0  0  0  0  0  0  0
   14.7170  -10.9360   25.6726 C   0  0  1  0  0  0  0  0  0  0  0  0
   15.8836  -12.0409   25.5566 C   0  0  2  0  0  0  0  0  0  0  0  0
   12.4476   -7.1077   26.9219 C   0  0  1  0  0  0  0  0  0  0  0  0
   13.1483   -6.0722   27.8852 C   0  0  2  0  0  0  0  0  0  0  0  0
   13.1940   -6.7054   29.3615 C   0  0  1  0  0  0  0  0  0  0  0  0
   14.0951   -8.0518   29.3636 C   0  0  1  0  0  0  0  0  0  0  0  0
   14.2050   -8.7292   30.7577 C   0  0  0  0  0  0  0  0  0  0  0  0
   16.8733  -11.5792   24.3779 C   0  0  1  0  0  0  0  0  0  0  0  0
   17.5338  -10.1776   24.8226 C   0  0  0  0  0  0  0  0  0  0  0  0
   16.4158   -9.0640   25.0011 C   0  0  2  0  0  0  0  0  0  0  0  0
   13.8148   -5.7915   30.3264 F   0  0  0  0  0  0  0  0  0  0  0  0
   12.3490   -6.6079   25.4727 N   0  0  0  0  0  0  0  0  0  0  0  0
   15.0326   -9.8792   30.7864 N   0  0  0  0  0  0  0  0  0  0  0  0
   17.9942  -12.5597   24.2245 N   0  0  0  0  0  0  0  0  0  0  0  0
   16.9993   -7.7930   25.4198 N   0  0  0  0  0  0  0  0  0  0  0  0
   14.4920   -8.4627   26.2014 O   0  0  0  0  0  0  0  0  0  0  0  0
   13.7764  -11.3328   26.7653 O   0  0  0  0  0  0  0  0  0  0  0  0
   15.2957  -13.2448   25.1957 O   0  0  0  0  0  0  0  0  0  0  0  0
   12.4879   -5.0980   27.9021 O   0  0  0  0  0  0  0  0  0  0  0  0
   13.4582   -9.0242   28.3019 O   0  0  0  0  0  0  0  0  0  0  0  0
  1  5  1  0  0  0  0
  1 18  1  1  0  0  0
  2 18  1  6  0  0  0
  2  3  1  0  0  0  0
  2 12  1  0  0  0  0
  3 19  1  1  0  0  0
  3  4  1  0  0  0  0
  4 20  1  6  0  0  0
  4 10  1  0  0  0  0
  5  6  1  0  0  0  0
  5 14  1  6  0  0  0
  6 21  1  1  0  0  0
  7 13  1  1  0  0  0
  7  6  1  0  0  0  0
  8  9  1  1  0  0  0
  8  7  1  0  0  0  0
 10 16  1  1  0  0  0
 11 10  1  0  0  0  0
 12 17  1  1  0  0  0
 12 11  1  0  0  0  0
 15  9  1  0  0  0  0
 22  8  1  0  0  0  0
 22  1  1  0  0  0  0
M  END
>  <CHROM.1>
175.63992264,47.60468990,-177.66346584,14.64398521,-8.97484222,27.02548286
2.97699696,-1.09714138,2.06114533

>  <Name>
lig.pdb

>  <RI>
0

>  <Rbt.Current_Directory>
/home/itssahil/PROJECTS/Mol_Feturizer/New_Systems/rnas/5bxk

>  <Rbt.Executable>
rbdock ($Id: //depot/dev/client3/rdock/2013.1/src/exe/rbdock.cxx#4 $)

>  <Rbt.Library>
libRbt.so (2013.1, Build901 2013/11/27)

>  <Rbt.Parameter_File>
/export/apps/rDock/src/rDock_2013.1_src/data/scripts/dock_solv.prm

>  <Rbt.Receptor>
prm/pocket_docking_7.prm

>  <SCORE>
-11.1459

>  <SCORE.INTER>
-7.39818

>  <SCORE.INTER.CONST>
1

>  <SCORE.INTER.POLAR>
0

>  <SCORE.INTER.ROT>
3

>  <SCORE.INTER.SOLV>
14.7426

>  <SCORE.INTER.VDW>
-15.4463

>  <SCORE.INTER.norm>
-0.336281

>  <SCORE.INTRA>
-3.74771

>  <SCORE.INTRA.DIHEDRAL>
-6.20295

>  <SCORE.INTRA.DIHEDRAL.0>
7.18044

>  <SCORE.INTRA.POLAR>
0

>  <SCORE.INTRA.POLAR.0>
0

>  <SCORE.INTRA.REPUL>
0

>  <SCORE.INTRA.REPUL.0>
0

>  <SCORE.INTRA.SOLV>
-1.7491

>  <SCORE.INTRA.SOLV.lig_0>
-72.0615

>  <SCORE.INTRA.VDW>
0.228315

>  <SCORE.INTRA.VDW.0>
-1.54792

>  <SCORE.INTRA.norm>
-0.17035

>  <SCORE.RESTR>
0

>  <SCORE.RESTR.CAVITY>
0

>  <SCORE.RESTR.norm>
0

>  <SCORE.SYSTEM>
0

>  <SCORE.SYSTEM.CONST>
0

>  <SCORE.SYSTEM.DIHEDRAL>
0

>  <SCORE.SYSTEM.SOLV>
0

>  <SCORE.SYSTEM.norm>
0

>  <SCORE.heavy>
22

>  <SCORE.norm>
-0.506631

>  <RMSD>
6.572

$$$$
lig.pdb
 OpenBabel11021811523D
libRbt.so/2013.1/901 2013/11/27
 22 23  0  0  0  0  0  0  0  0999 V2000
   13.9228   -9.6824   27.4729 C   0  0  1  0  0  0  0  0  0  0  0  0
   15.8518  -10.5708   26.1544 C   0  0  1  0  0  0  0  0  0  0  0  0
   15.0975  -11.9019   25.5641 C   0  0  1  0  0  0  0  0  0  0  0  0
   16.2387  -12.9424   25.1059 C   0  0  2  0  0  0  0  0  0  0  0  0
   13.0954   -8.3751   27.8604 C   0  0  1  0  0  0  0  0  0  0  0  0
   13.9788   -7.3981   28.7302 C   0  0  2  0  0  0  0  0  0  0  0  0
   14.3813   -8.1550   30.0894 C   0  0  1  0  0  0  0  0  0  0  0  0
   15.2871   -9.4564   29.7564 C   0  0  1  0  0  0  0  0  0  0  0  0
   15.7339  -10.2474   31.0170 C   0  0  0  0  0  0  0  0  0  0  0  0
   17.0771  -12.2522   23.9216 C   0  0  1  0  0  0  0  0  0  0  0  0
   17.7901  -10.9426   24.5339 C   0  0  0  0  0  0  0  0  0  0  0  0
   16.7048   -9.9038   25.0488 C   0  0  2  0  0  0  0  0  0  0  0  0
   15.1901   -7.3029   30.9677 F   0  0  0  0  0  0  0  0  0  0  0  0
   12.6506   -7.7555   26.5270 N   0  0  0  0  0  0  0  0  0  0  0  0
   14.6673  -10.7017   31.8319 N   0  0  0  0  0  0  0  0  0  0  0  0
   18.1686  -13.1646   23.4553 N   0  0  0  0  0  0  0  0  0  0  0  0
   17.3380   -8.7194   25.6210 N   0  0  0  0  0  0  0  0  0  0  0  0
   14.9443   -9.5726   26.5635 O   0  0  0  0  0  0  0  0  0  0  0  0
   14.2974  -12.5116   26.6706 O   0  0  0  0  0  0  0  0  0  0  0  0
   15.6084  -14.0717   24.6030 O   0  0  0  0  0  0  0  0  0  0  0  0
   13.3196   -6.4586   28.9910 O   0  0  0  0  0  0  0  0  0  0  0  0
   14.4414  -10.3591   28.7825 O   0  0  0  0  0  0  0  0  0  0  0  0
  1  5  1  0  0  0  0
  1 18  1  6  0  0  0
  2 18  1  6  0  0  0
  2  3  1  0  0  0  0
  2 12  1  0  0  0  0
  3 19  1  1  0  0  0
  3  4  1  0  0  0  0
  4 20  1  6  0  0  0
  4 10  1  0  0  0  0
  5  6  1  0  0  0  0
  5 14  1  6  0  0  0
  6 21  1  1  0  0  0
  7 13  1  1  0  0  0
  7  6  1  0  0  0  0
  8  9  1  1  0  0  0
  8  7  1  0  0  0  0
 10 16  1  1  0  0  0
 11 10  1  0  0  0  0
 12 17  1  1  0  0  0
 12 11  1  0  0  0  0
 15  9  1  0  0  0  0
 22  8  1  0  0  0  0
 22  1  1  0  0  0  0
M  END
>  <CHROM.1>
175.20535134,56.28297458,57.48326501,15.24154502,-10.08336228,27.30369863
2.80239536,-1.20834458,2.11745692

>  <Name>
lig.pdb

>  <RI>
0

>  <Rbt.Current_Directory>
/home/itssahil/PROJECTS/Mol_Feturizer/New_Systems/rnas/5bxk

>  <Rbt.Executable>
rbdock ($Id: //depot/dev/client3/rdock/2013.1/src/exe/rbdock.cxx#4 $)

>  <Rbt.Library>
libRbt.so (2013.1, Build901 2013/11/27)

>  <Rbt.Parameter_File>
/export/apps/rDock/src/rDock_2013.1_src/data/scripts/dock_solv.prm

>  <Rbt.Receptor>
prm/pocket_docking_6.prm

>  <SCORE>
-11.5178

>  <SCORE.INTER>
-7.75322

>  <SCORE.INTER.CONST>
1

>  <SCORE.INTER.POLAR>
0

>  <SCORE.INTER.ROT>
3

>  <SCORE.INTER.SOLV>
17.9317

>  <SCORE.INTER.VDW>
-16.746

>  <SCORE.INTER.norm>
-0.352419

>  <SCORE.INTRA>
-3.76459

>  <SCORE.INTRA.DIHEDRAL>
-6.84606

>  <SCORE.INTRA.DIHEDRAL.0>
7.18044

>  <SCORE.INTRA.POLAR>
0

>  <SCORE.INTRA.POLAR.0>
0

>  <SCORE.INTRA.REPUL>
0

>  <SCORE.INTRA.REPUL.0>
0

>  <SCORE.INTRA.SOLV>
-0.736852

>  <SCORE.INTRA.SOLV.lig_0>
-72.0615

>  <SCORE.INTRA.VDW>
0.0268645

>  <SCORE.INTRA.VDW.0>
-1.54792

>  <SCORE.INTRA.norm>
-0.171118

>  <SCORE.RESTR>
0

>  <SCORE.RESTR.CAVITY>
0

>  <SCORE.RESTR.norm>
0

>  <SCORE.SYSTEM>
0

>  <SCORE.SYSTEM.CONST>
0

>  <SCORE.SYSTEM.DIHEDRAL>
0

>  <SCORE.SYSTEM.SOLV>
0

>  <SCORE.SYSTEM.norm>
0

>  <SCORE.heavy>
22

>  <SCORE.norm>
-0.523537

>  <RMSD>
6.574

$$$$
lig.pdb
 OpenBabel11021811523D
libRbt.so/2013.1/901 2013/11/27
 22 23  0  0  0  0  0  0  0  0999 V2000
   13.2830   -8.4906   26.9142 C   0  0  1  0  0  0  0  0  0  0  0  0
   15.4219   -9.5042   26.1103 C   0  0  1  0  0  0  0  0  0  0  0  0
   14.7305  -10.9198   25.6549 C   0  0  1  0  0  0  0  0  0  0  0  0
   15.9086  -12.0082   25.5046 C   0  0  2  0  0  0  0  0  0  0  0  0
   12.4102   -7.1573   26.9815 C   0  0  1  0  0  0  0  0  0  0  0  0
   13.0948   -6.0944   27.9265 C   0  0  2  0  0  0  0  0  0  0  0  0
   13.1765   -6.7126   29.4076 C   0  0  1  0  0  0  0  0  0  0  0  0
   14.1137   -8.0342   29.4098 C   0  0  1  0  0  0  0  0  0  0  0  0
   14.2598   -8.6956   30.8082 C   0  0  0  0  0  0  0  0  0  0  0  0
   16.8857  -11.5063   24.3318 C   0  0  1  0  0  0  0  0  0  0  0  0
   17.5333  -10.1088   24.8073 C   0  0  0  0  0  0  0  0  0  0  0  0
   16.4041   -9.0126   25.0201 C   0  0  2  0  0  0  0  0  0  0  0  0
   13.7845   -5.7736   30.3563 F   0  0  0  0  0  0  0  0  0  0  0  0
   12.2796   -6.6735   25.5294 N   0  0  0  0  0  0  0  0  0  0  0  0
   15.0982   -9.8379   30.8311 N   0  0  0  0  0  0  0  0  0  0  0  0
   18.0165  -12.4700   24.1474 N   0  0  0  0  0  0  0  0  0  0  0  0
   16.9761   -7.7459   25.4667 N   0  0  0  0  0  0  0  0  0  0  0  0
   14.4813   -8.4630   26.2465 O   0  0  0  0  0  0  0  0  0  0  0  0
   13.8012  -11.3542   26.7430 O   0  0  0  0  0  0  0  0  0  0  0  0
   15.3319  -13.2094   25.1173 O   0  0  0  0  0  0  0  0  0  0  0  0
   12.4085   -5.1384   27.9434 O   0  0  0  0  0  0  0  0  0  0  0  0
   13.4900   -9.0331   28.3650 O   0  0  0  0  0  0  0  0  0  0  0  0
  1  5  1  0  0  0  0
  1 18  1  1  0  0  0
  2 18  1  6  0  0  0
  2  3  1  0  0  0  0
  2 12  1  0  0  0  0
  3 19  1  1  0  0  0
  3  4  1  0  0  0  0
  4 20  1  6  0  0  0
  4 10  1  0  0  0  0
  5  6  1  0  0  0  0
  5 14  1  6  0  0  0
  6 21  1  1  0  0  0
  7 13  1  1  0  0  0
  7  6  1  0  0  0  0
  8  9  1  1  0  0  0
  8  7  1  0  0  0  0
 10 16  1  1  0  0  0
 11 10  1  0  0  0  0
 12 17  1  1  0  0  0
 12 11  1  0  0  0  0
 15  9  1  0  0  0  0
 22  8  1  0  0  0  0
 22  1  1  0  0  0  0
M  END
>  <CHROM.1>
177.43306298,48.15342820,-178.82162967,14.64234644,-8.96187698,27.04163172
2.89854824,-1.08629247,1.99285002

>  <Name>
lig.pdb

>  <RI>
0

>  <Rbt.Current_Directory>
/home/itssahil/PROJECTS/Mol_Feturizer/New_Systems/rnas/5bxk

>  <Rbt.Executable>
rbdock ($Id: //depot/dev/client3/rdock/2013.1/src/exe/rbdock.cxx#4 $)

>  <Rbt.Library>
libRbt.so (2013.1, Build901 2013/11/27)

>  <Rbt.Parameter_File>
/export/apps/rDock/src/rDock_2013.1_src/data/scripts/dock_solv.prm

>  <Rbt.Receptor>
prm/pocket_docking_7.prm

>  <SCORE>
-11.2134

>  <SCORE.INTER>
-7.36986

>  <SCORE.INTER.CONST>
1

>  <SCORE.INTER.POLAR>
0

>  <SCORE.INTER.ROT>
3

>  <SCORE.INTER.SOLV>
14.9256

>  <SCORE.INTER.VDW>
-15.4884

>  <SCORE.INTER.norm>
-0.334993

>  <SCORE.INTRA>
-3.84351

>  <SCORE.INTRA.DIHEDRAL>
-6.33788

>  <SCORE.INTRA.DIHEDRAL.0>
7.18044

>  <SCORE.INTRA.POLAR>
0

>  <SCORE.INTRA.POLAR.0>
0

>  <SCORE.INTRA.REPUL>
0

>  <SCORE.INTRA.REPUL.0>
0

>  <SCORE.INTRA.SOLV>
-1.75571

>  <SCORE.INTRA.SOLV.lig_0>
-72.0615

>  <SCORE.INTRA.VDW>
0.203281

>  <SCORE.INTRA.VDW.0>
-1.54792

>  <SCORE.INTRA.norm>
-0.174705

>  <SCORE.RESTR>
0

>  <SCORE.RESTR.CAVITY>
0

>  <SCORE.RESTR.norm>
0

>  <SCORE.SYSTEM>
0

>  <SCORE.SYSTEM.CONST>
0

>  <SCORE.SYSTEM.DIHEDRAL>
0

>  <SCORE.SYSTEM.SOLV>
0

>  <SCORE.SYSTEM.norm>
0

>  <SCORE.heavy>
22

>  <SCORE.norm>
-0.509699

>  <RMSD>
6.574

$$$$
lig.pdb
 OpenBabel11021811523D
libRbt.so/2013.1/901 2013/11/27
 22 23  0  0  0  0  0  0  0  0999 V2000
   13.9548   -9.6834   27.4593 C   0  0  1  0  0  0  0  0  0  0  0  0
   15.7690  -10.6412   26.0312 C   0  0  1  0  0  0  0  0  0  0  0  0
   15.0423  -12.0298   25.5485 C   0  0  1  0  0  0  0  0  0  0  0  0
   16.2032  -13.0579   25.1120 C   0  0  2  0  0  0  0  0  0  0  0  0
   13.1488   -8.3565   27.8250 C   0  0  1  0  0  0  0  0  0  0  0  0
   14.1117   -7.2824   28.4656 C   0  0  2  0  0  0  0  0  0  0  0  0
   14.7149   -7.8905   29.8252 C   0  0  1  0  0  0  0  0  0  0  0  0
   15.6056   -9.2046   29.5019 C   0  0  1  0  0  0  0  0  0  0  0  0
   16.2405   -9.8560   30.7617 C   0  0  0  0  0  0  0  0  0  0  0  0
   16.9759  -12.4133   23.8592 C   0  0  1  0  0  0  0  0  0  0  0  0
   17.6629  -11.0462   24.3666 C   0  0  0  0  0  0  0  0  0  0  0  0
   16.5599  -10.0146   24.8579 C   0  0  2  0  0  0  0  0  0  0  0  0
   15.6087   -6.9407   30.4965 F   0  0  0  0  0  0  0  0  0  0  0  0
   12.5112   -7.8830   26.5101 N   0  0  0  0  0  0  0  0  0  0  0  0
   17.2226   -9.0594   31.4011 N   0  0  0  0  0  0  0  0  0  0  0  0
   18.0824  -13.3157   23.4089 N   0  0  0  0  0  0  0  0  0  0  0  0
   17.1702   -8.7774   25.3355 N   0  0  0  0  0  0  0  0  0  0  0  0
   14.8415   -9.6506   26.4127 O   0  0  0  0  0  0  0  0  0  0  0  0
   14.3023  -12.5975   26.7174 O   0  0  0  0  0  0  0  0  0  0  0  0
   15.5962  -14.2357   24.7000 O   0  0  0  0  0  0  0  0  0  0  0  0
   13.4661   -6.3316   28.7197 O   0  0  0  0  0  0  0  0  0  0  0  0
   14.6639  -10.2150   28.7464 O   0  0  0  0  0  0  0  0  0  0  0  0
  1  5  1  0  0  0  0
  1 18  1  6  0  0  0
  2 18  1  6  0  0  0
  2  3  1  0  0  0  0
  2 12  1  0  0  0  0
  3 19  1  1  0  0  0
  3  4  1  0  0  0  0
  4 20  1  6  0  0  0
  4 10  1  0  0  0  0
  5  6  1  0  0  0  0
  5 14  1  6  0  0  0
  6 21  1  1  0  0  0
  7 13  1  6  0  0  0
  7  6  1  0  0  0  0
  8  9  1  1  0  0  0
  8  7  1  0  0  0  0
 10 16  1  1  0  0  0
 11 10  1  0  0  0  0
 12 17  1  1  0  0  0
 12 11  1  0  0  0  0
 15  9  1  0  0  0  0
 22  8  1  0  0  0  0
 22  1  1  0  0  0  0
M  END
>  <CHROM.1>
171.21188971,64.14943500,-66.56467115,15.41255348,-9.99038686,27.15465248
1.90633911,-0.73017943,1.04576972

>  <Name>
lig.pdb

>  <RI>
0

>  <Rbt.Current_Directory>
/home/itssahil/PROJECTS/Mol_Feturizer/New_Systems/rnas/5bxk

>  <Rbt.Executable>
rbdock ($Id: //depot/dev/client3/rdock/2013.1/src/exe/rbdock.cxx#4 $)

>  <Rbt.Library>
libRbt.so (2013.1, Build901 2013/11/27)

>  <Rbt.Parameter_File>
/export/apps/rDock/src/rDock_2013.1_src/data/scripts/dock_solv.prm

>  <Rbt.Receptor>
prm/pocket_docking_5.prm

>  <SCORE>
-11.0959

>  <SCORE.INTER>
-7.45905

>  <SCORE.INTER.CONST>
1

>  <SCORE.INTER.POLAR>
0

>  <SCORE.INTER.ROT>
3

>  <SCORE.INTER.SOLV>
17.2014

>  <SCORE.INTER.VDW>
-16.3065

>  <SCORE.INTER.norm>
-0.339048

>  <SCORE.INTRA>
-3.63685

>  <SCORE.INTRA.DIHEDRAL>
-6.44689

>  <SCORE.INTRA.DIHEDRAL.0>
7.18044

>  <SCORE.INTRA.POLAR>
0

>  <SCORE.INTRA.POLAR.0>
0

>  <SCORE.INTRA.REPUL>
0

>  <SCORE.INTRA.REPUL.0>
0

>  <SCORE.INTRA.SOLV>
-0.895602

>  <SCORE.INTRA.SOLV.lig_0>
-72.0615

>  <SCORE.INTRA.VDW>
0.0343969

>  <SCORE.INTRA.VDW.0>
-1.54792

>  <SCORE.INTRA.norm>
-0.165311

>  <SCORE.RESTR>
0

>  <SCORE.RESTR.CAVITY>
0

>  <SCORE.RESTR.norm>
0

>  <SCORE.SYSTEM>
0

>  <SCORE.SYSTEM.CONST>
0

>  <SCORE.SYSTEM.DIHEDRAL>
0

>  <SCORE.SYSTEM.SOLV>
0

>  <SCORE.SYSTEM.norm>
0

>  <SCORE.heavy>
22

>  <SCORE.norm>
-0.504359

>  <RMSD>
6.575

$$$$
lig.pdb
 OpenBabel11021811523D
libRbt.so/2013.1/901 2013/11/27
 22 23  0  0  0  0  0  0  0  0999 V2000
   13.9203   -9.6306   27.3896 C   0  0  1  0  0  0  0  0  0  0  0  0
   15.8544  -10.5711   26.1157 C   0  0  1  0  0  0  0  0  0  0  0  0
   15.0803  -11.8993   25.5449 C   0  0  1  0  0  0  0  0  0  0  0  0
   16.2057  -12.9680   25.1131 C   0  0  2  0  0  0  0  0  0  0  0  0
   13.1289   -8.2986   27.7687 C   0  0  1  0  0  0  0  0  0  0  0  0
   14.0269   -7.3559   28.6611 C   0  0  2  0  0  0  0  0  0  0  0  0
   14.3779   -8.1327   30.0233 C   0  0  1  0  0  0  0  0  0  0  0  0
   15.2466   -9.4615   29.7002 C   0  0  1  0  0  0  0  0  0  0  0  0
   15.6426  -10.2733   30.9645 C   0  0  0  0  0  0  0  0  0  0  0  0
   17.0632  -12.3144   23.9217 C   0  0  1  0  0  0  0  0  0  0  0  0
   17.7956  -11.0066   24.5145 C   0  0  0  0  0  0  0  0  0  0  0  0
   16.7258   -9.9396   25.0035 C   0  0  2  0  0  0  0  0  0  0  0  0
   15.1970   -7.3123   30.9219 F   0  0  0  0  0  0  0  0  0  0  0  0
   12.7308   -7.6579   26.4306 N   0  0  0  0  0  0  0  0  0  0  0  0
   14.5454  -10.7063   31.7499 N   0  0  0  0  0  0  0  0  0  0  0  0
   18.1413  -13.2543   23.4791 N   0  0  0  0  0  0  0  0  0  0  0  0
   17.3764   -8.7562   25.5580 N   0  0  0  0  0  0  0  0  0  0  0  0
   14.9623   -9.5498   26.5007 O   0  0  0  0  0  0  0  0  0  0  0  0
   14.2629  -12.4745   26.6573 O   0  0  0  0  0  0  0  0  0  0  0  0
   15.5585  -14.0950   24.6268 O   0  0  0  0  0  0  0  0  0  0  0  0
   13.3940   -6.3965   28.9145 O   0  0  0  0  0  0  0  0  0  0  0  0
   14.3908  -10.3308   28.7050 O   0  0  0  0  0  0  0  0  0  0  0  0
  1  5  1  0  0  0  0
  1 18  1  6  0  0  0
  2 18  1  6  0  0  0
  2  3  1  0  0  0  0
  2 12  1  0  0  0  0
  3 19  1  1  0  0  0
  3  4  1  0  0  0  0
  4 20  1  6  0  0  0
  4 10  1  0  0  0  0
  5  6  1  0  0  0  0
  5 14  1  6  0  0  0
  6 21  1  1  0  0  0
  7 13  1  1  0  0  0
  7  6  1  0  0  0  0
  8  9  1  1  0  0  0
  8  7  1  0  0  0  0
 10 16  1  1  0  0  0
 11 10  1  0  0  0  0
 12 17  1  1  0  0  0
 12 11  1  0  0  0  0
 15  9  1  0  0  0  0
 22  8  1  0  0  0  0
 22  1  1  0  0  0  0
M  END
>  <CHROM.1>
174.35493668,55.14811946,58.00155012,15.23436720,-10.08022217,27.25822732
2.92378576,-1.22136314,2.23201226

>  <Name>
lig.pdb

>  <RI>
0

>  <Rbt.Current_Directory>
/home/itssahil/PROJECTS/Mol_Feturizer/New_Systems/rnas/5bxk

>  <Rbt.Executable>
rbdock ($Id: //depot/dev/client3/rdock/2013.1/src/exe/rbdock.cxx#4 $)

>  <Rbt.Library>
libRbt.so (2013.1, Build901 2013/11/27)

>  <Rbt.Parameter_File>
/export/apps/rDock/src/rDock_2013.1_src/data/scripts/dock_solv.prm

>  <Rbt.Receptor>
prm/pocket_docking_7.prm

>  <SCORE>
-11.5291

>  <SCORE.INTER>
-7.82462

>  <SCORE.INTER.CONST>
1

>  <SCORE.INTER.POLAR>
0

>  <SCORE.INTER.ROT>
3

>  <SCORE.INTER.SOLV>
17.6444

>  <SCORE.INTER.VDW>
-16.6979

>  <SCORE.INTER.norm>
-0.355665

>  <SCORE.INTRA>
-3.70451

>  <SCORE.INTRA.DIHEDRAL>
-6.76517

>  <SCORE.INTRA.DIHEDRAL.0>
7.18044

>  <SCORE.INTRA.POLAR>
0

>  <SCORE.INTRA.POLAR.0>
0

>  <SCORE.INTRA.REPUL>
0

>  <SCORE.INTRA.REPUL.0>
0

>  <SCORE.INTRA.SOLV>
-0.724691

>  <SCORE.INTRA.SOLV.lig_0>
-72.0615

>  <SCORE.INTRA.VDW>
0.0404212

>  <SCORE.INTRA.VDW.0>
-1.54792

>  <SCORE.INTRA.norm>
-0.168387

>  <SCORE.RESTR>
0

>  <SCORE.RESTR.CAVITY>
0

>  <SCORE.RESTR.norm>
0

>  <SCORE.SYSTEM>
0

>  <SCORE.SYSTEM.CONST>
0

>  <SCORE.SYSTEM.DIHEDRAL>
0

>  <SCORE.SYSTEM.SOLV>
0

>  <SCORE.SYSTEM.norm>
0

>  <SCORE.heavy>
22

>  <SCORE.norm>
-0.524051

>  <RMSD>
6.575

$$$$
lig.pdb
 OpenBabel11021811523D
libRbt.so/2013.1/901 2013/11/27
 22 23  0  0  0  0  0  0  0  0999 V2000
   13.9527   -9.7293   27.4345 C   0  0  1  0  0  0  0  0  0  0  0  0
   15.7709  -10.6756   26.0039 C   0  0  1  0  0  0  0  0  0  0  0  0
   15.0580  -12.0885   25.5741 C   0  0  1  0  0  0  0  0  0  0  0  0
   16.2263  -13.1064   25.1335 C   0  0  2  0  0  0  0  0  0  0  0  0
   13.1868   -8.3908   27.8416 C   0  0  1  0  0  0  0  0  0  0  0  0
   14.1831   -7.3631   28.5069 C   0  0  2  0  0  0  0  0  0  0  0  0
   14.7746   -8.0264   29.8457 C   0  0  1  0  0  0  0  0  0  0  0  0
   15.6258   -9.3558   29.4809 C   0  0  1  0  0  0  0  0  0  0  0  0
   16.2473  -10.0604   30.7185 C   0  0  0  0  0  0  0  0  0  0  0  0
   16.9553  -12.4797   23.8459 C   0  0  1  0  0  0  0  0  0  0  0  0
   17.6295  -11.0883   24.3019 C   0  0  0  0  0  0  0  0  0  0  0  0
   16.5204  -10.0646   24.7957 C   0  0  2  0  0  0  0  0  0  0  0  0
   15.6984   -7.1219   30.5387 F   0  0  0  0  0  0  0  0  0  0  0  0
   12.5572   -7.8623   26.5439 N   0  0  0  0  0  0  0  0  0  0  0  0
   17.1782   -9.2694   31.4367 N   0  0  0  0  0  0  0  0  0  0  0  0
   18.0665  -13.3732   23.3897 N   0  0  0  0  0  0  0  0  0  0  0  0
   17.1196   -8.8051   25.2270 N   0  0  0  0  0  0  0  0  0  0  0  0
   14.8352   -9.6924   26.3846 O   0  0  0  0  0  0  0  0  0  0  0  0
   14.3582  -12.6399   26.7752 O   0  0  0  0  0  0  0  0  0  0  0  0
   15.6309  -14.3048   24.7662 O   0  0  0  0  0  0  0  0  0  0  0  0
   13.5662   -6.4018   28.7910 O   0  0  0  0  0  0  0  0  0  0  0  0
   14.6520  -10.3171   28.7024 O   0  0  0  0  0  0  0  0  0  0  0  0
  1  5  1  0  0  0  0
  1 18  1  6  0  0  0
  2 18  1  6  0  0  0
  2  3  1  0  0  0  0
  2 12  1  0  0  0  0
  3 19  1  1  0  0  0
  3  4  1  0  0  0  0
  4 20  1  6  0  0  0
  4 10  1  0  0  0  0
  5  6  1  0  0  0  0
  5 14  1  6  0  0  0
  6 21  1  1  0  0  0
  7 13  1  6  0  0  0
  7  6  1  0  0  0  0
  8  9  1  1  0  0  0
  8  7  1  0  0  0  0
 10 16  1  1  0  0  0
 11 10  1  0  0  0  0
 12 17  1  1  0  0  0
 12 11  1  0  0  0  0
 15  9  1  0  0  0  0
 22  8  1  0  0  0  0
 22  1  1  0  0  0  0
M  END
>  <CHROM.1>
168.32993137,62.37252938,-61.82205903,15.42968100,-10.07066147,27.15510261
1.94607269,-0.84319738,1.11326817

>  <Name>
lig.pdb

>  <RI>
0

>  <Rbt.Current_Directory>
/home/itssahil/PROJECTS/Mol_Feturizer/New_Systems/rnas/5bxk

>  <Rbt.Executable>
rbdock ($Id: //depot/dev/client3/rdock/2013.1/src/exe/rbdock.cxx#4 $)

>  <Rbt.Library>
libRbt.so (2013.1, Build901 2013/11/27)

>  <Rbt.Parameter_File>
/export/apps/rDock/src/rDock_2013.1_src/data/scripts/dock_solv.prm

>  <Rbt.Receptor>
prm/pocket_docking_5.prm

>  <SCORE>
-11.1473

>  <SCORE.INTER>
-7.61165

>  <SCORE.INTER.CONST>
1

>  <SCORE.INTER.POLAR>
0

>  <SCORE.INTER.ROT>
3

>  <SCORE.INTER.SOLV>
17.8112

>  <SCORE.INTER.VDW>
-16.6115

>  <SCORE.INTER.norm>
-0.345984

>  <SCORE.INTRA>
-3.54611

>  <SCORE.INTRA.DIHEDRAL>
-6.37855

>  <SCORE.INTRA.DIHEDRAL.0>
7.18044

>  <SCORE.INTRA.POLAR>
0

>  <SCORE.INTRA.POLAR.0>
0

>  <SCORE.INTRA.REPUL>
0

>  <SCORE.INTRA.REPUL.0>
0

>  <SCORE.INTRA.SOLV>
-0.844148

>  <SCORE.INTRA.SOLV.lig_0>
-72.0615

>  <SCORE.INTRA.VDW>
0.0652381

>  <SCORE.INTRA.VDW.0>
-1.54792

>  <SCORE.INTRA.norm>
-0.161187

>  <SCORE.RESTR>
0.0104625

>  <SCORE.RESTR.CAVITY>
0.0104625

>  <SCORE.RESTR.norm>
0.000475566

>  <SCORE.SYSTEM>
0

>  <SCORE.SYSTEM.CONST>
0

>  <SCORE.SYSTEM.DIHEDRAL>
0

>  <SCORE.SYSTEM.SOLV>
0

>  <SCORE.SYSTEM.norm>
0

>  <SCORE.heavy>
22

>  <SCORE.norm>
-0.506695

>  <RMSD>
6.576

$$$$
lig.pdb
 OpenBabel11021811523D
libRbt.so/2013.1/901 2013/11/27
 22 23  0  0  0  0  0  0  0  0999 V2000
   13.2889   -8.4883   26.8984 C   0  0  1  0  0  0  0  0  0  0  0  0
   15.4179   -9.5316   26.1066 C   0  0  1  0  0  0  0  0  0  0  0  0
   14.7183  -10.9491   25.6703 C   0  0  1  0  0  0  0  0  0  0  0  0
   15.8895  -12.0475   25.5396 C   0  0  2  0  0  0  0  0  0  0  0  0
   12.4384   -7.1406   26.9661 C   0  0  1  0  0  0  0  0  0  0  0  0
   13.1451   -6.0863   27.9044 C   0  0  2  0  0  0  0  0  0  0  0  0
   13.2243   -6.7014   29.3869 C   0  0  1  0  0  0  0  0  0  0  0  0
   14.1398   -8.0381   29.3884 C   0  0  1  0  0  0  0  0  0  0  0  0
   14.2822   -8.6978   30.7880 C   0  0  0  0  0  0  0  0  0  0  0  0
   16.8732  -11.5697   24.3624 C   0  0  1  0  0  0  0  0  0  0  0  0
   17.5289  -10.1697   24.8190 C   0  0  0  0  0  0  0  0  0  0  0  0
   16.4066   -9.0629   25.0121 C   0  0  2  0  0  0  0  0  0  0  0  0
   13.8524   -5.7697   30.3297 F   0  0  0  0  0  0  0  0  0  0  0  0
   12.3082   -6.6591   25.5133 N   0  0  0  0  0  0  0  0  0  0  0  0
   15.0841   -9.8660   30.8060 N   0  0  0  0  0  0  0  0  0  0  0  0
   17.9981  -12.5436   24.1957 N   0  0  0  0  0  0  0  0  0  0  0  0
   16.9858   -7.7936   25.4416 N   0  0  0  0  0  0  0  0  0  0  0  0
   14.4840   -8.4822   26.2245 O   0  0  0  0  0  0  0  0  0  0  0  0
   13.7830  -11.3610   26.7620 O   0  0  0  0  0  0  0  0  0  0  0  0
   15.3057  -13.2505   25.1686 O   0  0  0  0  0  0  0  0  0  0  0  0
   12.4746   -5.1191   27.9219 O   0  0  0  0  0  0  0  0  0  0  0  0
   13.4944   -9.0297   28.3498 O   0  0  0  0  0  0  0  0  0  0  0  0
  1  5  1  0  0  0  0
  1 18  1  1  0  0  0
  2 18  1  6  0  0  0
  2  3  1  0  0  0  0
  2 12  1  0  0  0  0
  3 19  1  1  0  0  0
  3  4  1  0  0  0  0
  4 20  1  6  0  0  0
  4 10  1  0  0  0  0
  5  6  1  0  0  0  0
  5 14  1  6  0  0  0
  6 21  1  1  0  0  0
  7 13  1  1  0  0  0
  7  6  1  0  0  0  0
  8  9  1  1  0  0  0
  8  7  1  0  0  0  0
 10 16  1  1  0  0  0
 11 10  1  0  0  0  0
 12 17  1  1  0  0  0
 12 11  1  0  0  0  0
 15  9  1  0  0  0  0
 22  8  1  0  0  0  0
 22  1  1  0  0  0  0
M  END
>  <CHROM.1>
176.19555618,48.75181620,-179.80634434,14.65368871,-8.98006268,27.03833245
2.92179677,-1.09682614,2.00519931

>  <Name>
lig.pdb

>  <RI>
0

>  <Rbt.Current_Directory>
/home/itssahil/PROJECTS/Mol_Feturizer/New_Systems/rnas/5bxk

>  <Rbt.Executable>
rbdock ($Id: //depot/dev/client3/rdock/2013.1/src/exe/rbdock.cxx#4 $)

>  <Rbt.Library>
libRbt.so (2013.1, Build901 2013/11/27)

>  <Rbt.Parameter_File>
/export/apps/rDock/src/rDock_2013.1_src/data/scripts/dock_solv.prm

>  <Rbt.Receptor>
prm/pocket_docking_6.prm

>  <SCORE>
-11.2797

>  <SCORE.INTER>
-7.42177

>  <SCORE.INTER.CONST>
1

>  <SCORE.INTER.POLAR>
0

>  <SCORE.INTER.ROT>
3

>  <SCORE.INTER.SOLV>
14.8254

>  <SCORE.INTER.VDW>
-15.4897

>  <SCORE.INTER.norm>
-0.337353

>  <SCORE.INTRA>
-3.85792

>  <SCORE.INTRA.DIHEDRAL>
-6.3698

>  <SCORE.INTRA.DIHEDRAL.0>
7.18044

>  <SCORE.INTRA.POLAR>
0

>  <SCORE.INTRA.POLAR.0>
0

>  <SCORE.INTRA.REPUL>
0

>  <SCORE.INTRA.REPUL.0>
0

>  <SCORE.INTRA.SOLV>
-1.73936

>  <SCORE.INTRA.SOLV.lig_0>
-72.0615

>  <SCORE.INTRA.VDW>
0.196663

>  <SCORE.INTRA.VDW.0>
-1.54792

>  <SCORE.INTRA.norm>
-0.17536

>  <SCORE.RESTR>
0

>  <SCORE.RESTR.CAVITY>
0

>  <SCORE.RESTR.norm>
0

>  <SCORE.SYSTEM>
0

>  <SCORE.SYSTEM.CONST>
0

>  <SCORE.SYSTEM.DIHEDRAL>
0

>  <SCORE.SYSTEM.SOLV>
0

>  <SCORE.SYSTEM.norm>
0

>  <SCORE.heavy>
22

>  <SCORE.norm>
-0.512713

>  <RMSD>
6.576

$$$$
lig.pdb
 OpenBabel11021811523D
libRbt.so/2013.1/901 2013/11/27
 22 23  0  0  0  0  0  0  0  0999 V2000
   18.6039   -7.2541   26.4828 C   0  0  1  0  0  0  0  0  0  0  0  0
   16.8677   -8.9872   26.0029 C   0  0  1  0  0  0  0  0  0  0  0  0
   17.8484  -10.2914   25.8400 C   0  0  1  0  0  0  0  0  0  0  0  0
   17.0461  -11.3976   24.9868 C   0  0  2  0  0  0  0  0  0  0  0  0
   19.1783   -6.2527   27.5834 C   0  0  1  0  0  0  0  0  0  0  0  0
   18.2438   -4.9884   27.7234 C   0  0  2  0  0  0  0  0  0  0  0  0
   18.2193   -4.2189   26.3129 C   0  0  1  0  0  0  0  0  0  0  0  0
   17.5761   -5.1695   25.1695 C   0  0  1  0  0  0  0  0  0  0  0  0
   17.5016   -4.5012   23.7687 C   0  0  0  0  0  0  0  0  0  0  0  0
   15.7527  -11.8235   25.8399 C   0  0  1  0  0  0  0  0  0  0  0  0
   14.8222  -10.5161   25.9921 C   0  0  0  0  0  0  0  0  0  0  0  0
   15.5888   -9.3729   26.7843 C   0  0  2  0  0  0  0  0  0  0  0  0
   17.3850   -3.0136   26.3652 F   0  0  0  0  0  0  0  0  0  0  0  0
   19.2769   -7.0727   28.8787 N   0  0  0  0  0  0  0  0  0  0  0  0
   16.8367   -5.2750   22.7852 N   0  0  0  0  0  0  0  0  0  0  0  0
   14.9504  -12.8448   25.0952 N   0  0  0  0  0  0  0  0  0  0  0  0
   14.7625   -8.1766   26.9151 N   0  0  0  0  0  0  0  0  0  0  0  0
   17.4597   -7.9578   26.7625 O   0  0  0  0  0  0  0  0  0  0  0  0
   19.0603   -9.8684   25.0727 O   0  0  0  0  0  0  0  0  0  0  0  0
   17.8689  -12.5060   24.8460 O   0  0  0  0  0  0  0  0  0  0  0  0
   18.7163   -4.2849   28.5401 O   0  0  0  0  0  0  0  0  0  0  0  0
   18.4428   -6.4833   25.1331 O   0  0  0  0  0  0  0  0  0  0  0  0
  1  5  1  0  0  0  0
  1 18  1  1  0  0  0
  2 18  1  1  0  0  0
  2  3  1  0  0  0  0
  2 12  1  0  0  0  0
  3 19  1  6  0  0  0
  3  4  1  0  0  0  0
  4 20  1  1  0  0  0
  4 10  1  0  0  0  0
  5  6  1  0  0  0  0
  5 14  1  1  0  0  0
  6 21  1  1  0  0  0
  7 13  1  1  0  0  0
  7  6  1  0  0  0  0
  8  9  1  6  0  0  0
  8  7  1  0  0  0  0
 10 16  1  6  0  0  0
 11 10  1  0  0  0  0
 12 17  1  6  0  0  0
 12 11  1  0  0  0  0
 15  9  1  0  0  0  0
 22  8  1  0  0  0  0
 22  1  1  0  0  0  0
M  END
>  <CHROM.1>
-172.61469864,61.58488553,-174.79522250,17.39022457,-7.76089149,26.03870190
-1.03738165,1.08190196,2.79903360

>  <Name>
lig.pdb

>  <RI>
0

>  <Rbt.Current_Directory>
/home/itssahil/PROJECTS/Mol_Feturizer/New_Systems/rnas/5bxk

>  <Rbt.Executable>
rbdock ($Id: //depot/dev/client3/rdock/2013.1/src/exe/rbdock.cxx#4 $)

>  <Rbt.Library>
libRbt.so (2013.1, Build901 2013/11/27)

>  <Rbt.Parameter_File>
/export/apps/rDock/src/rDock_2013.1_src/data/scripts/dock_solv.prm

>  <Rbt.Receptor>
prm/pocket_docking_5.prm

>  <SCORE>
-8.32774

>  <SCORE.INTER>
-4.1705

>  <SCORE.INTER.CONST>
1

>  <SCORE.INTER.POLAR>
0

>  <SCORE.INTER.ROT>
3

>  <SCORE.INTER.SOLV>
15.7425

>  <SCORE.INTER.VDW>
-13.6278

>  <SCORE.INTER.norm>
-0.189568

>  <SCORE.INTRA>
-4.15724

>  <SCORE.INTRA.DIHEDRAL>
-6.67828

>  <SCORE.INTRA.DIHEDRAL.0>
7.18044

>  <SCORE.INTRA.POLAR>
0

>  <SCORE.INTRA.POLAR.0>
0

>  <SCORE.INTRA.REPUL>
0

>  <SCORE.INTRA.REPUL.0>
0

>  <SCORE.INTRA.SOLV>
-1.83589

>  <SCORE.INTRA.SOLV.lig_0>
-72.0615

>  <SCORE.INTRA.VDW>
0.0998402

>  <SCORE.INTRA.VDW.0>
-1.54792

>  <SCORE.INTRA.norm>
-0.188966

>  <SCORE.RESTR>
0

>  <SCORE.RESTR.CAVITY>
0

>  <SCORE.RESTR.norm>
0

>  <SCORE.SYSTEM>
0

>  <SCORE.SYSTEM.CONST>
0

>  <SCORE.SYSTEM.DIHEDRAL>
0

>  <SCORE.SYSTEM.SOLV>
0

>  <SCORE.SYSTEM.norm>
0

>  <SCORE.heavy>
22

>  <SCORE.norm>
-0.378534

>  <RMSD>
6.578

$$$$
lig.pdb
 OpenBabel11021811523D
libRbt.so/2013.1/901 2013/11/27
 22 23  0  0  0  0  0  0  0  0999 V2000
   14.1117   -9.8391   27.6798 C   0  0  1  0  0  0  0  0  0  0  0  0
   15.8873  -10.7729   26.1885 C   0  0  1  0  0  0  0  0  0  0  0  0
   15.1077  -12.1036   25.6312 C   0  0  1  0  0  0  0  0  0  0  0  0
   16.2278  -13.1454   25.1258 C   0  0  2  0  0  0  0  0  0  0  0  0
   13.3210   -8.5191   28.0999 C   0  0  1  0  0  0  0  0  0  0  0  0
   14.2963   -7.4832   28.7833 C   0  0  2  0  0  0  0  0  0  0  0  0
   14.8925   -8.1534   30.1166 C   0  0  1  0  0  0  0  0  0  0  0  0
   15.7680   -9.4634   29.7394 C   0  0  1  0  0  0  0  0  0  0  0  0
   16.3953  -10.1731   30.9711 C   0  0  0  0  0  0  0  0  0  0  0  0
   17.0160  -12.4563   23.9068 C   0  0  1  0  0  0  0  0  0  0  0  0
   17.7552  -11.1470   24.4879 C   0  0  0  0  0  0  0  0  0  0  0  0
   16.6934  -10.1072   25.0476 C   0  0  2  0  0  0  0  0  0  0  0  0
   15.7972   -7.2423   30.8258 F   0  0  0  0  0  0  0  0  0  0  0  0
   12.6889   -7.9849   26.8058 N   0  0  0  0  0  0  0  0  0  0  0  0
   17.3546   -9.3974   31.6683 N   0  0  0  0  0  0  0  0  0  0  0  0
   18.0862  -13.3698   23.3955 N   0  0  0  0  0  0  0  0  0  0  0  0
   17.3511   -8.9229   25.5920 N   0  0  0  0  0  0  0  0  0  0  0  0
   14.9986   -9.7738   26.6349 O   0  0  0  0  0  0  0  0  0  0  0  0
   14.3544  -12.7122   26.7707 O   0  0  0  0  0  0  0  0  0  0  0  0
   15.5759  -14.2743   24.6505 O   0  0  0  0  0  0  0  0  0  0  0  0
   13.6617   -6.5363   29.0765 O   0  0  0  0  0  0  0  0  0  0  0  0
   14.8146  -10.4311   28.9436 O   0  0  0  0  0  0  0  0  0  0  0  0
  1  5  1  0  0  0  0
  1 18  1  6  0  0  0
  2 18  1  6  0  0  0
  2  3  1  0  0  0  0
  2 12  1  0  0  0  0
  3 19  1  1  0  0  0
  3  4  1  0  0  0  0
  4 20  1  6  0  0  0
  4 10  1  0  0  0  0
  5  6  1  0  0  0  0
  5 14  1  6  0  0  0
  6 21  1  1  0  0  0
  7 13  1  6  0  0  0
  7  6  1  0  0  0  0
  8  9  1  1  0  0  0
  8  7  1  0  0  0  0
 10 16  1  1  0  0  0
 11 10  1  0  0  0  0
 12 17  1  1  0  0  0
 12 11  1  0  0  0  0
 15  9  1  0  0  0  0
 22  8  1  0  0  0  0
 22  1  1  0  0  0  0
M  END
>  <CHROM.1>
173.23448017,63.70701289,-64.57250054,15.53583836,-10.15265759,27.34149059
1.87231357,-0.72552632,1.06790011

>  <Name>
lig.pdb

>  <RI>
0

>  <Rbt.Current_Directory>
/home/itssahil/PROJECTS/Mol_Feturizer/New_Systems/rnas/5bxk

>  <Rbt.Executable>
rbdock ($Id: //depot/dev/client3/rdock/2013.1/src/exe/rbdock.cxx#4 $)

>  <Rbt.Library>
libRbt.so (2013.1, Build901 2013/11/27)

>  <Rbt.Parameter_File>
/export/apps/rDock/src/rDock_2013.1_src/data/scripts/dock_solv.prm

>  <Rbt.Receptor>
prm/pocket_docking_5.prm

>  <SCORE>
-10.9247

>  <SCORE.INTER>
-7.19678

>  <SCORE.INTER.CONST>
1

>  <SCORE.INTER.POLAR>
0

>  <SCORE.INTER.ROT>
3

>  <SCORE.INTER.SOLV>
16.6454

>  <SCORE.INTER.VDW>
-15.9463

>  <SCORE.INTER.norm>
-0.327126

>  <SCORE.INTRA>
-3.72795

>  <SCORE.INTRA.DIHEDRAL>
-6.6879

>  <SCORE.INTRA.DIHEDRAL.0>
7.18044

>  <SCORE.INTRA.POLAR>
0

>  <SCORE.INTRA.POLAR.0>
0

>  <SCORE.INTRA.REPUL>
0

>  <SCORE.INTRA.REPUL.0>
0

>  <SCORE.INTRA.SOLV>
-0.875226

>  <SCORE.INTRA.SOLV.lig_0>
-72.0615

>  <SCORE.INTRA.VDW>
0.0536143

>  <SCORE.INTRA.VDW.0>
-1.54792

>  <SCORE.INTRA.norm>
-0.169452

>  <SCORE.RESTR>
0

>  <SCORE.RESTR.CAVITY>
0

>  <SCORE.RESTR.norm>
0

>  <SCORE.SYSTEM>
0

>  <SCORE.SYSTEM.CONST>
0

>  <SCORE.SYSTEM.DIHEDRAL>
0

>  <SCORE.SYSTEM.SOLV>
0

>  <SCORE.SYSTEM.norm>
0

>  <SCORE.heavy>
22

>  <SCORE.norm>
-0.496579

>  <RMSD>
6.578

$$$$
lig.pdb
 OpenBabel11021811523D
libRbt.so/2013.1/901 2013/11/27
 22 23  0  0  0  0  0  0  0  0999 V2000
   13.8598   -9.5929   27.4425 C   0  0  1  0  0  0  0  0  0  0  0  0
   15.7875  -10.5242   26.1521 C   0  0  1  0  0  0  0  0  0  0  0  0
   15.0528  -11.8900   25.6191 C   0  0  1  0  0  0  0  0  0  0  0  0
   16.2092  -12.9354   25.2129 C   0  0  2  0  0  0  0  0  0  0  0  0
   13.0794   -8.2586   27.8359 C   0  0  1  0  0  0  0  0  0  0  0  0
   14.0088   -7.3021   28.6802 C   0  0  2  0  0  0  0  0  0  0  0  0
   14.4159   -8.0606   30.0371 C   0  0  1  0  0  0  0  0  0  0  0  0
   15.2757   -9.3908   29.6965 C   0  0  1  0  0  0  0  0  0  0  0  0
   15.7241  -10.1855   30.9543 C   0  0  0  0  0  0  0  0  0  0  0  0
   17.0443  -12.2883   24.0021 C   0  0  1  0  0  0  0  0  0  0  0  0
   17.7378  -10.9435   24.5578 C   0  0  0  0  0  0  0  0  0  0  0  0
   16.6372   -9.8967   25.0211 C   0  0  2  0  0  0  0  0  0  0  0  0
   15.2670   -7.2265   30.8923 F   0  0  0  0  0  0  0  0  0  0  0  0
   12.6266   -7.6359   26.5067 N   0  0  0  0  0  0  0  0  0  0  0  0
   14.6627  -10.5840   31.8044 N   0  0  0  0  0  0  0  0  0  0  0  0
   18.1494  -13.2067   23.5818 N   0  0  0  0  0  0  0  0  0  0  0  0
   17.2527   -8.6797   25.5419 N   0  0  0  0  0  0  0  0  0  0  0  0
   14.8656   -9.5203   26.5121 O   0  0  0  0  0  0  0  0  0  0  0  0
   14.2553  -12.4596   26.7486 O   0  0  0  0  0  0  0  0  0  0  0  0
   15.5955  -14.0940   24.7587 O   0  0  0  0  0  0  0  0  0  0  0  0
   13.3831   -6.3414   28.9464 O   0  0  0  0  0  0  0  0  0  0  0  0
   14.3842  -10.2751   28.7469 O   0  0  0  0  0  0  0  0  0  0  0  0
  1  5  1  0  0  0  0
  1 18  1  6  0  0  0
  2 18  1  6  0  0  0
  2  3  1  0  0  0  0
  2 12  1  0  0  0  0
  3 19  1  1  0  0  0
  3  4  1  0  0  0  0
  4 20  1  6  0  0  0
  4 10  1  0  0  0  0
  5  6  1  0  0  0  0
  5 14  1  6  0  0  0
  6 21  1  1  0  0  0
  7 13  1  1  0  0  0
  7  6  1  0  0  0  0
  8  9  1  1  0  0  0
  8  7  1  0  0  0  0
 10 16  1  1  0  0  0
 11 10  1  0  0  0  0
 12 17  1  1  0  0  0
 12 11  1  0  0  0  0
 15  9  1  0  0  0  0
 22  8  1  0  0  0  0
 22  1  1  0  0  0  0
M  END
>  <CHROM.1>
170.93982837,57.84652427,56.56278946,15.21996949,-10.03031765,27.30238261
2.81499651,-1.21375096,2.10125347

>  <Name>
lig.pdb

>  <RI>
0

>  <Rbt.Current_Directory>
/home/itssahil/PROJECTS/Mol_Feturizer/New_Systems/rnas/5bxk

>  <Rbt.Executable>
rbdock ($Id: //depot/dev/client3/rdock/2013.1/src/exe/rbdock.cxx#4 $)

>  <Rbt.Library>
libRbt.so (2013.1, Build901 2013/11/27)

>  <Rbt.Parameter_File>
/export/apps/rDock/src/rDock_2013.1_src/data/scripts/dock_solv.prm

>  <Rbt.Receptor>
prm/pocket_docking_8.prm

>  <SCORE>
-11.5108

>  <SCORE.INTER>
-7.86682

>  <SCORE.INTER.CONST>
1

>  <SCORE.INTER.POLAR>
0

>  <SCORE.INTER.ROT>
3

>  <SCORE.INTER.SOLV>
17.0676

>  <SCORE.INTER.VDW>
-16.5338

>  <SCORE.INTER.norm>
-0.357583

>  <SCORE.INTRA>
-3.64399

>  <SCORE.INTRA.DIHEDRAL>
-6.59754

>  <SCORE.INTRA.DIHEDRAL.0>
7.18044

>  <SCORE.INTRA.POLAR>
0

>  <SCORE.INTRA.POLAR.0>
0

>  <SCORE.INTRA.REPUL>
0

>  <SCORE.INTRA.REPUL.0>
0

>  <SCORE.INTRA.SOLV>
-0.709465

>  <SCORE.INTRA.SOLV.lig_0>
-72.0615

>  <SCORE.INTRA.VDW>
0.00950995

>  <SCORE.INTRA.VDW.0>
-1.54792

>  <SCORE.INTRA.norm>
-0.165636

>  <SCORE.RESTR>
0

>  <SCORE.RESTR.CAVITY>
0

>  <SCORE.RESTR.norm>
0

>  <SCORE.SYSTEM>
0

>  <SCORE.SYSTEM.CONST>
0

>  <SCORE.SYSTEM.DIHEDRAL>
0

>  <SCORE.SYSTEM.SOLV>
0

>  <SCORE.SYSTEM.norm>
0

>  <SCORE.heavy>
22

>  <SCORE.norm>
-0.523219

>  <RMSD>
6.578

$$$$
lig.pdb
 OpenBabel11021811523D
libRbt.so/2013.1/901 2013/11/27
 22 23  0  0  0  0  0  0  0  0999 V2000
   13.9575   -9.6182   27.4899 C   0  0  1  0  0  0  0  0  0  0  0  0
   15.8555  -10.5452   26.1533 C   0  0  1  0  0  0  0  0  0  0  0  0
   15.0674  -11.8645   25.5808 C   0  0  1  0  0  0  0  0  0  0  0  0
   16.1817  -12.9281   25.1096 C   0  0  2  0  0  0  0  0  0  0  0  0
   13.1679   -8.2925   27.8939 C   0  0  1  0  0  0  0  0  0  0  0  0
   14.0843   -7.3450   28.7622 C   0  0  2  0  0  0  0  0  0  0  0  0
   14.4791   -8.1217   30.1125 C   0  0  1  0  0  0  0  0  0  0  0  0
   15.3476   -9.4438   29.7623 C   0  0  1  0  0  0  0  0  0  0  0  0
   15.7849  -10.2550   31.0133 C   0  0  0  0  0  0  0  0  0  0  0  0
   17.0140  -12.2586   23.9091 C   0  0  1  0  0  0  0  0  0  0  0  0
   17.7608  -10.9600   24.5043 C   0  0  0  0  0  0  0  0  0  0  0  0
   16.7033   -9.8990   25.0314 C   0  0  2  0  0  0  0  0  0  0  0  0
   15.3177   -7.2971   30.9890 F   0  0  0  0  0  0  0  0  0  0  0  0
   12.7275   -7.6522   26.5688 N   0  0  0  0  0  0  0  0  0  0  0  0
   14.7177  -10.6495   31.8581 N   0  0  0  0  0  0  0  0  0  0  0  0
   18.0810  -13.1932   23.4300 N   0  0  0  0  0  0  0  0  0  0  0  0
   17.3673   -8.7242   25.5882 N   0  0  0  0  0  0  0  0  0  0  0  0
   14.9733   -9.5285   26.5719 O   0  0  0  0  0  0  0  0  0  0  0  0
   14.2736  -12.4545   26.7025 O   0  0  0  0  0  0  0  0  0  0  0  0
   15.5227  -14.0475   24.6217 O   0  0  0  0  0  0  0  0  0  0  0  0
   13.4522   -6.3905   29.0353 O   0  0  0  0  0  0  0  0  0  0  0  0
   14.4699  -10.3173   28.7901 O   0  0  0  0  0  0  0  0  0  0  0  0
  1  5  1  0  0  0  0
  1 18  1  6  0  0  0
  2 18  1  6  0  0  0
  2  3  1  0  0  0  0
  2 12  1  0  0  0  0
  3 19  1  1  0  0  0
  3  4  1  0  0  0  0
  4 20  1  6  0  0  0
  4 10  1  0  0  0  0
  5  6  1  0  0  0  0
  5 14  1  6  0  0  0
  6 21  1  1  0  0  0
  7 13  1  1  0  0  0
  7  6  1  0  0  0  0
  8  9  1  1  0  0  0
  8  7  1  0  0  0  0
 10 16  1  1  0  0  0
 11 10  1  0  0  0  0
 12 17  1  1  0  0  0
 12 11  1  0  0  0  0
 15  9  1  0  0  0  0
 22  8  1  0  0  0  0
 22  1  1  0  0  0  0
M  END
>  <CHROM.1>
174.81935107,55.71210167,55.51201602,15.26674134,-10.05329481,27.31380279
2.82217039,-1.23345477,2.14028943

>  <Name>
lig.pdb

>  <RI>
0

>  <Rbt.Current_Directory>
/home/itssahil/PROJECTS/Mol_Feturizer/New_Systems/rnas/5bxk

>  <Rbt.Executable>
rbdock ($Id: //depot/dev/client3/rdock/2013.1/src/exe/rbdock.cxx#4 $)

>  <Rbt.Library>
libRbt.so (2013.1, Build901 2013/11/27)

>  <Rbt.Parameter_File>
/export/apps/rDock/src/rDock_2013.1_src/data/scripts/dock_solv.prm

>  <Rbt.Receptor>
prm/pocket_docking_8.prm

>  <SCORE>
-11.5485

>  <SCORE.INTER>
-7.83567

>  <SCORE.INTER.CONST>
1

>  <SCORE.INTER.POLAR>
0

>  <SCORE.INTER.ROT>
3

>  <SCORE.INTER.SOLV>
17.3313

>  <SCORE.INTER.VDW>
-16.6009

>  <SCORE.INTER.norm>
-0.356167

>  <SCORE.INTRA>
-3.71284

>  <SCORE.INTRA.DIHEDRAL>
-6.75634

>  <SCORE.INTRA.DIHEDRAL.0>
7.18044

>  <SCORE.INTRA.POLAR>
0

>  <SCORE.INTRA.POLAR.0>
0

>  <SCORE.INTRA.REPUL>
0

>  <SCORE.INTRA.REPUL.0>
0

>  <SCORE.INTRA.SOLV>
-0.71145

>  <SCORE.INTRA.SOLV.lig_0>
-72.0615

>  <SCORE.INTRA.VDW>
0.0210544

>  <SCORE.INTRA.VDW.0>
-1.54792

>  <SCORE.INTRA.norm>
-0.168765

>  <SCORE.RESTR>
0

>  <SCORE.RESTR.CAVITY>
0

>  <SCORE.RESTR.norm>
0

>  <SCORE.SYSTEM>
0

>  <SCORE.SYSTEM.CONST>
0

>  <SCORE.SYSTEM.DIHEDRAL>
0

>  <SCORE.SYSTEM.SOLV>
0

>  <SCORE.SYSTEM.norm>
0

>  <SCORE.heavy>
22

>  <SCORE.norm>
-0.524932

>  <RMSD>
6.580

$$$$
lig.pdb
 OpenBabel11021811523D
libRbt.so/2013.1/901 2013/11/27
 22 23  0  0  0  0  0  0  0  0999 V2000
   14.3982   -9.3566   27.5399 C   0  0  1  0  0  0  0  0  0  0  0  0
   15.9579  -10.5918   26.0267 C   0  0  1  0  0  0  0  0  0  0  0  0
   15.0593  -11.9023   25.6213 C   0  0  1  0  0  0  0  0  0  0  0  0
   16.0770  -13.0686   25.1750 C   0  0  2  0  0  0  0  0  0  0  0  0
   13.6190   -7.9858   27.7808 C   0  0  1  0  0  0  0  0  0  0  0  0
   14.6316   -6.8285   28.1369 C   0  0  2  0  0  0  0  0  0  0  0  0
   15.3872   -7.2192   29.5002 C   0  0  1  0  0  0  0  0  0  0  0  0
   16.2550   -8.5711   29.2897 C   0  0  1  0  0  0  0  0  0  0  0  0
   17.0318   -9.0202   30.5582 C   0  0  0  0  0  0  0  0  0  0  0  0
   16.8625  -12.5538   23.8712 C   0  0  1  0  0  0  0  0  0  0  0  0
   17.7204  -11.2593   24.3035 C   0  0  0  0  0  0  0  0  0  0  0  0
   16.7628  -10.0947   24.8021 C   0  0  2  0  0  0  0  0  0  0  0  0
   16.3360   -6.1797   29.9135 F   0  0  0  0  0  0  0  0  0  0  0  0
   12.8359   -7.7210   26.4861 N   0  0  0  0  0  0  0  0  0  0  0  0
   18.0176   -8.1017   30.9972 N   0  0  0  0  0  0  0  0  0  0  0  0
   17.8399  -13.5894   23.4088 N   0  0  0  0  0  0  0  0  0  0  0  0
   17.5286   -8.9214   25.2121 N   0  0  0  0  0  0  0  0  0  0  0  0
   15.1651   -9.4911   26.4102 O   0  0  0  0  0  0  0  0  0  0  0  0
   14.3112  -12.3470   26.8375 O   0  0  0  0  0  0  0  0  0  0  0  0
   15.3240  -14.1813   24.8283 O   0  0  0  0  0  0  0  0  0  0  0  0
   14.0048   -5.8473   28.3092 O   0  0  0  0  0  0  0  0  0  0  0  0
   15.2502   -9.6834   28.8084 O   0  0  0  0  0  0  0  0  0  0  0  0
  1  5  1  0  0  0  0
  1 18  1  6  0  0  0
  2 18  1  6  0  0  0
  2  3  1  0  0  0  0
  2 12  1  0  0  0  0
  3 19  1  1  0  0  0
  3  4  1  0  0  0  0
  4 20  1  6  0  0  0
  4 10  1  0  0  0  0
  5  6  1  0  0  0  0
  5 14  1  6  0  0  0
  6 21  1  1  0  0  0
  7 13  1  6  0  0  0
  7  6  1  0  0  0  0
  8  9  1  1  0  0  0
  8  7  1  0  0  0  0
 10 16  1  1  0  0  0
 11 10  1  0  0  0  0
 12 17  1  1  0  0  0
 12 11  1  0  0  0  0
 15  9  1  0  0  0  0
 22  8  1  0  0  0  0
 22  1  1  0  0  0  0
M  END
>  <CHROM.1>
178.02476448,69.08792250,-63.25786103,15.73198146,-9.70954003,27.04662669
1.70952571,-0.44943253,0.77433804

>  <Name>
lig.pdb

>  <RI>
0

>  <Rbt.Current_Directory>
/home/itssahil/PROJECTS/Mol_Feturizer/New_Systems/rnas/5bxk

>  <Rbt.Executable>
rbdock ($Id: //depot/dev/client3/rdock/2013.1/src/exe/rbdock.cxx#4 $)

>  <Rbt.Library>
libRbt.so (2013.1, Build901 2013/11/27)

>  <Rbt.Parameter_File>
/export/apps/rDock/src/rDock_2013.1_src/data/scripts/dock_solv.prm

>  <Rbt.Receptor>
prm/pocket_docking_4.prm

>  <SCORE>
-9.06526

>  <SCORE.INTER>
-5.43307

>  <SCORE.INTER.CONST>
1

>  <SCORE.INTER.POLAR>
0

>  <SCORE.INTER.ROT>
3

>  <SCORE.INTER.SOLV>
14.7859

>  <SCORE.INTER.VDW>
-14.1507

>  <SCORE.INTER.norm>
-0.246958

>  <SCORE.INTRA>
-3.63331

>  <SCORE.INTRA.DIHEDRAL>
-6.58894

>  <SCORE.INTRA.DIHEDRAL.0>
7.18044

>  <SCORE.INTRA.POLAR>
0

>  <SCORE.INTRA.POLAR.0>
0

>  <SCORE.INTRA.REPUL>
0

>  <SCORE.INTRA.REPUL.0>
0

>  <SCORE.INTRA.SOLV>
-0.769228

>  <SCORE.INTRA.SOLV.lig_0>
-72.0615

>  <SCORE.INTRA.VDW>
0.0457796

>  <SCORE.INTRA.VDW.0>
-1.54792

>  <SCORE.INTRA.norm>
-0.16515

>  <SCORE.RESTR>
0.00110921

>  <SCORE.RESTR.CAVITY>
0.00110921

>  <SCORE.RESTR.norm>
5.04187e-05

>  <SCORE.SYSTEM>
0

>  <SCORE.SYSTEM.CONST>
0

>  <SCORE.SYSTEM.DIHEDRAL>
0

>  <SCORE.SYSTEM.SOLV>
0

>  <SCORE.SYSTEM.norm>
0

>  <SCORE.heavy>
22

>  <SCORE.norm>
-0.412057

>  <RMSD>
6.581

$$$$
lig.pdb
 OpenBabel11021811523D
libRbt.so/2013.1/901 2013/11/27
 22 23  0  0  0  0  0  0  0  0999 V2000
   13.9824   -9.6475   27.3552 C   0  0  1  0  0  0  0  0  0  0  0  0
   15.8990  -10.6263   26.0835 C   0  0  1  0  0  0  0  0  0  0  0  0
   15.0985  -11.9510   25.5418 C   0  0  1  0  0  0  0  0  0  0  0  0
   16.2028  -13.0410   25.1087 C   0  0  2  0  0  0  0  0  0  0  0  0
   13.2113   -8.3015   27.7263 C   0  0  1  0  0  0  0  0  0  0  0  0
   14.1227   -7.3681   28.6148 C   0  0  2  0  0  0  0  0  0  0  0  0
   14.4600   -8.1430   29.9816 C   0  0  1  0  0  0  0  0  0  0  0  0
   15.3084   -9.4868   29.6665 C   0  0  1  0  0  0  0  0  0  0  0  0
   15.6903  -10.2980   30.9356 C   0  0  0  0  0  0  0  0  0  0  0  0
   17.0522  -12.4155   23.8965 C   0  0  1  0  0  0  0  0  0  0  0  0
   17.8109  -11.1102   24.4613 C   0  0  0  0  0  0  0  0  0  0  0  0
   16.7630  -10.0220   24.9508 C   0  0  2  0  0  0  0  0  0  0  0  0
   15.2906   -7.3306   30.8769 F   0  0  0  0  0  0  0  0  0  0  0  0
   12.8247   -7.6617   26.3844 N   0  0  0  0  0  0  0  0  0  0  0  0
   14.5850  -10.7203   31.7154 N   0  0  0  0  0  0  0  0  0  0  0  0
   18.1108  -13.3761   23.4516 N   0  0  0  0  0  0  0  0  0  0  0  0
   17.4377   -8.8404   25.4800 N   0  0  0  0  0  0  0  0  0  0  0  0
   15.0266   -9.5875   26.4672 O   0  0  0  0  0  0  0  0  0  0  0  0
   14.2892  -12.4998   26.6732 O   0  0  0  0  0  0  0  0  0  0  0  0
   15.5333  -14.1653   24.6468 O   0  0  0  0  0  0  0  0  0  0  0  0
   13.5045   -6.3977   28.8624 O   0  0  0  0  0  0  0  0  0  0  0  0
   14.4404  -10.3479   28.6749 O   0  0  0  0  0  0  0  0  0  0  0  0
  1  5  1  0  0  0  0
  1 18  1  6  0  0  0
  2 18  1  6  0  0  0
  2  3  1  0  0  0  0
  2 12  1  0  0  0  0
  3 19  1  1  0  0  0
  3  4  1  0  0  0  0
  4 20  1  6  0  0  0
  4 10  1  0  0  0  0
  5  6  1  0  0  0  0
  5 14  1  6  0  0  0
  6 21  1  1  0  0  0
  7 13  1  1  0  0  0
  7  6  1  0  0  0  0
  8  9  1  1  0  0  0
  8  7  1  0  0  0  0
 10 16  1  1  0  0  0
 11 10  1  0  0  0  0
 12 17  1  1  0  0  0
 12 11  1  0  0  0  0
 15  9  1  0  0  0  0
 22  8  1  0  0  0  0
 22  1  1  0  0  0  0
M  END
>  <CHROM.1>
174.71127159,53.96691940,58.55176769,15.28126878,-10.12272981,27.22628158
2.96695018,-1.23661367,2.26849157

>  <Name>
lig.pdb

>  <RI>
0

>  <Rbt.Current_Directory>
/home/itssahil/PROJECTS/Mol_Feturizer/New_Systems/rnas/5bxk

>  <Rbt.Executable>
rbdock ($Id: //depot/dev/client3/rdock/2013.1/src/exe/rbdock.cxx#4 $)

>  <Rbt.Library>
libRbt.so (2013.1, Build901 2013/11/27)

>  <Rbt.Parameter_File>
/export/apps/rDock/src/rDock_2013.1_src/data/scripts/dock_solv.prm

>  <Rbt.Receptor>
prm/pocket_docking_6.prm

>  <SCORE>
-11.5159

>  <SCORE.INTER>
-7.8475

>  <SCORE.INTER.CONST>
1

>  <SCORE.INTER.POLAR>
0

>  <SCORE.INTER.ROT>
3

>  <SCORE.INTER.SOLV>
17.7438

>  <SCORE.INTER.VDW>
-16.7463

>  <SCORE.INTER.norm>
-0.356704

>  <SCORE.INTRA>
-3.66835

>  <SCORE.INTRA.DIHEDRAL>
-6.72758

>  <SCORE.INTRA.DIHEDRAL.0>
7.18044

>  <SCORE.INTRA.POLAR>
0

>  <SCORE.INTRA.POLAR.0>
0

>  <SCORE.INTRA.REPUL>
0

>  <SCORE.INTRA.REPUL.0>
0

>  <SCORE.INTRA.SOLV>
-0.721434

>  <SCORE.INTRA.SOLV.lig_0>
-72.0615

>  <SCORE.INTRA.VDW>
0.0561529

>  <SCORE.INTRA.VDW.0>
-1.54792

>  <SCORE.INTRA.norm>
-0.166743

>  <SCORE.RESTR>
0

>  <SCORE.RESTR.CAVITY>
0

>  <SCORE.RESTR.norm>
0

>  <SCORE.SYSTEM>
0

>  <SCORE.SYSTEM.CONST>
0

>  <SCORE.SYSTEM.DIHEDRAL>
0

>  <SCORE.SYSTEM.SOLV>
0

>  <SCORE.SYSTEM.norm>
0

>  <SCORE.heavy>
22

>  <SCORE.norm>
-0.523448

>  <RMSD>
6.582

$$$$
lig.pdb
 OpenBabel11021811523D
libRbt.so/2013.1/901 2013/11/27
 22 23  0  0  0  0  0  0  0  0999 V2000
   13.8577   -9.6353   27.4165 C   0  0  1  0  0  0  0  0  0  0  0  0
   15.7958  -10.5575   26.1353 C   0  0  1  0  0  0  0  0  0  0  0  0
   15.0517  -11.9079   25.5768 C   0  0  1  0  0  0  0  0  0  0  0  0
   16.2007  -12.9572   25.1599 C   0  0  2  0  0  0  0  0  0  0  0  0
   13.0679   -8.3064   27.8094 C   0  0  1  0  0  0  0  0  0  0  0  0
   13.9794   -7.3580   28.6818 C   0  0  2  0  0  0  0  0  0  0  0  0
   14.3615   -8.1307   30.0380 C   0  0  1  0  0  0  0  0  0  0  0  0
   15.2297   -9.4560   29.6995 C   0  0  1  0  0  0  0  0  0  0  0  0
   15.6550  -10.2638   30.9569 C   0  0  0  0  0  0  0  0  0  0  0  0
   17.0480  -12.2985   23.9639 C   0  0  1  0  0  0  0  0  0  0  0  0
   17.7507  -10.9691   24.5446 C   0  0  0  0  0  0  0  0  0  0  0  0
   16.6571   -9.9198   25.0188 C   0  0  2  0  0  0  0  0  0  0  0  0
   15.1948   -7.3049   30.9184 F   0  0  0  0  0  0  0  0  0  0  0  0
   12.6397   -7.6698   26.4786 N   0  0  0  0  0  0  0  0  0  0  0  0
   14.5762  -10.6973   31.7670 N   0  0  0  0  0  0  0  0  0  0  0  0
   18.1471  -13.2201   23.5347 N   0  0  0  0  0  0  0  0  0  0  0  0
   17.2808   -8.7170   25.5623 N   0  0  0  0  0  0  0  0  0  0  0  0
   14.8811   -9.5512   26.5065 O   0  0  0  0  0  0  0  0  0  0  0  0
   14.2431  -12.4882   26.6929 O   0  0  0  0  0  0  0  0  0  0  0  0
   15.5790  -14.1028   24.6840 O   0  0  0  0  0  0  0  0  0  0  0  0
   13.3472   -6.4010   28.9464 O   0  0  0  0  0  0  0  0  0  0  0  0
   14.3580  -10.3310   28.7233 O   0  0  0  0  0  0  0  0  0  0  0  0
  1  5  1  0  0  0  0
  1 18  1  6  0  0  0
  2 18  1  6  0  0  0
  2  3  1  0  0  0  0
  2 12  1  0  0  0  0
  3 19  1  1  0  0  0
  3  4  1  0  0  0  0
  4 20  1  6  0  0  0
  4 10  1  0  0  0  0
  5  6  1  0  0  0  0
  5 14  1  6  0  0  0
  6 21  1  1  0  0  0
  7 13  1  1  0  0  0
  7  6  1  0  0  0  0
  8  9  1  1  0  0  0
  8  7  1  0  0  0  0
 10 16  1  1  0  0  0
 11 10  1  0  0  0  0
 12 17  1  1  0  0  0
 12 11  1  0  0  0  0
 15  9  1  0  0  0  0
 22  8  1  0  0  0  0
 22  1  1  0  0  0  0
M  END
>  <CHROM.1>
172.22956501,56.82545021,57.83507614,15.20207475,-10.07407960,27.28292128
2.86508130,-1.21289762,2.16519160

>  <Name>
lig.pdb

>  <RI>
0

>  <Rbt.Current_Directory>
/home/itssahil/PROJECTS/Mol_Feturizer/New_Systems/rnas/5bxk

>  <Rbt.Executable>
rbdock ($Id: //depot/dev/client3/rdock/2013.1/src/exe/rbdock.cxx#4 $)

>  <Rbt.Library>
libRbt.so (2013.1, Build901 2013/11/27)

>  <Rbt.Parameter_File>
/export/apps/rDock/src/rDock_2013.1_src/data/scripts/dock_solv.prm

>  <Rbt.Receptor>
prm/pocket_docking_6.prm

>  <SCORE>
-11.6113

>  <SCORE.INTER>
-7.92162

>  <SCORE.INTER.CONST>
1

>  <SCORE.INTER.POLAR>
0

>  <SCORE.INTER.ROT>
3

>  <SCORE.INTER.SOLV>
17.7178

>  <SCORE.INTER.VDW>
-16.787

>  <SCORE.INTER.norm>
-0.360074

>  <SCORE.INTRA>
-3.68965

>  <SCORE.INTRA.DIHEDRAL>
-6.69601

>  <SCORE.INTRA.DIHEDRAL.0>
7.18044

>  <SCORE.INTRA.POLAR>
0

>  <SCORE.INTRA.POLAR.0>
0

>  <SCORE.INTRA.REPUL>
0

>  <SCORE.INTRA.REPUL.0>
0

>  <SCORE.INTRA.SOLV>
-0.722113

>  <SCORE.INTRA.SOLV.lig_0>
-72.0615

>  <SCORE.INTRA.VDW>
0.0194135

>  <SCORE.INTRA.VDW.0>
-1.54792

>  <SCORE.INTRA.norm>
-0.167711

>  <SCORE.RESTR>
0

>  <SCORE.RESTR.CAVITY>
0

>  <SCORE.RESTR.norm>
0

>  <SCORE.SYSTEM>
0

>  <SCORE.SYSTEM.CONST>
0

>  <SCORE.SYSTEM.DIHEDRAL>
0

>  <SCORE.SYSTEM.SOLV>
0

>  <SCORE.SYSTEM.norm>
0

>  <SCORE.heavy>
22

>  <SCORE.norm>
-0.527785

>  <RMSD>
6.582

$$$$
lig.pdb
 OpenBabel11021811523D
libRbt.so/2013.1/901 2013/11/27
 22 23  0  0  0  0  0  0  0  0999 V2000
   14.6829   -7.1693   26.2593 C   0  0  1  0  0  0  0  0  0  0  0  0
   15.4402   -9.5181   25.8619 C   0  0  1  0  0  0  0  0  0  0  0  0
   14.7470  -10.9750   25.5686 C   0  0  1  0  0  0  0  0  0  0  0  0
   15.9157  -12.0833   25.6020 C   0  0  2  0  0  0  0  0  0  0  0  0
   13.4723   -6.4340   26.9927 C   0  0  1  0  0  0  0  0  0  0  0  0
   12.3198   -6.1057   25.9655 C   0  0  2  0  0  0  0  0  0  0  0  0
   12.9058   -5.1095   24.8490 C   0  0  1  0  0  0  0  0  0  0  0  0
   14.0956   -5.8352   24.0228 C   0  0  1  0  0  0  0  0  0  0  0  0
   14.7172   -4.9465   22.9100 C   0  0  0  0  0  0  0  0  0  0  0  0
   16.9387  -11.7452   24.4098 C   0  0  1  0  0  0  0  0  0  0  0  0
   17.5872  -10.3033   24.7239 C   0  0  0  0  0  0  0  0  0  0  0  0
   16.4654   -9.1797   24.7532 C   0  0  2  0  0  0  0  0  0  0  0  0
   11.8858   -4.7371   23.8629 F   0  0  0  0  0  0  0  0  0  0  0  0
   13.0256   -7.3867   28.1119 N   0  0  0  0  0  0  0  0  0  0  0  0
   13.7964   -4.5137   21.9236 N   0  0  0  0  0  0  0  0  0  0  0  0
   18.0629  -12.7338   24.3916 N   0  0  0  0  0  0  0  0  0  0  0  0
   17.0377   -7.8705   25.0528 N   0  0  0  0  0  0  0  0  0  0  0  0
   14.5088   -8.4605   25.8291 O   0  0  0  0  0  0  0  0  0  0  0  0
   13.7756  -11.2575   26.6699 O   0  0  0  0  0  0  0  0  0  0  0  0
   15.3374  -13.3197   25.3526 O   0  0  0  0  0  0  0  0  0  0  0  0
   11.4598   -5.5615   26.5569 O   0  0  0  0  0  0  0  0  0  0  0  0
   15.1780   -6.2730   25.0788 O   0  0  0  0  0  0  0  0  0  0  0  0
  1  5  1  0  0  0  0
  1 18  1  6  0  0  0
  2 18  1  6  0  0  0
  2  3  1  0  0  0  0
  2 12  1  0  0  0  0
  3 19  1  1  0  0  0
  3  4  1  0  0  0  0
  4 20  1  6  0  0  0
  4 10  1  0  0  0  0
  5  6  1  0  0  0  0
  5 14  1  1  0  0  0
  6 21  1  1  0  0  0
  7 13  1  6  0  0  0
  7  6  1  0  0  0  0
  8  9  1  6  0  0  0
  8  7  1  0  0  0  0
 10 16  1  1  0  0  0
 11 10  1  0  0  0  0
 12 17  1  1  0  0  0
 12 11  1  0  0  0  0
 15  9  1  0  0  0  0
 22  8  1  0  0  0  0
 22  1  1  0  0  0  0
M  END
>  <CHROM.1>
-141.44822380,167.16235354,-59.29899648,14.63281602,-8.21262090,25.20909610
2.22139222,0.71630711,-0.53950426

>  <Name>
lig.pdb

>  <RI>
0

>  <Rbt.Current_Directory>
/home/itssahil/PROJECTS/Mol_Feturizer/New_Systems/rnas/5bxk

>  <Rbt.Executable>
rbdock ($Id: //depot/dev/client3/rdock/2013.1/src/exe/rbdock.cxx#4 $)

>  <Rbt.Library>
libRbt.so (2013.1, Build901 2013/11/27)

>  <Rbt.Parameter_File>
/export/apps/rDock/src/rDock_2013.1_src/data/scripts/dock_solv.prm

>  <Rbt.Receptor>
prm/pocket_docking_8.prm

>  <SCORE>
-7.16422

>  <SCORE.INTER>
-8.98975

>  <SCORE.INTER.CONST>
1

>  <SCORE.INTER.POLAR>
0

>  <SCORE.INTER.ROT>
3

>  <SCORE.INTER.SOLV>
14.4877

>  <SCORE.INTER.VDW>
-16.4224

>  <SCORE.INTER.norm>
-0.408625

>  <SCORE.INTRA>
1.82553

>  <SCORE.INTRA.DIHEDRAL>
-1.29392

>  <SCORE.INTRA.DIHEDRAL.0>
7.18044

>  <SCORE.INTRA.POLAR>
0

>  <SCORE.INTRA.POLAR.0>
0

>  <SCORE.INTRA.REPUL>
0

>  <SCORE.INTRA.REPUL.0>
0

>  <SCORE.INTRA.SOLV>
1.97513

>  <SCORE.INTRA.SOLV.lig_0>
-72.0615

>  <SCORE.INTRA.VDW>
1.48492

>  <SCORE.INTRA.VDW.0>
-1.54792

>  <SCORE.INTRA.norm>
0.0829787

>  <SCORE.RESTR>
0

>  <SCORE.RESTR.CAVITY>
0

>  <SCORE.RESTR.norm>
0

>  <SCORE.SYSTEM>
0

>  <SCORE.SYSTEM.CONST>
0

>  <SCORE.SYSTEM.DIHEDRAL>
0

>  <SCORE.SYSTEM.SOLV>
0

>  <SCORE.SYSTEM.norm>
0

>  <SCORE.heavy>
22

>  <SCORE.norm>
-0.325646

>  <RMSD>
6.585

$$$$
lig.pdb
 OpenBabel11021811523D
libRbt.so/2013.1/901 2013/11/27
 22 23  0  0  0  0  0  0  0  0999 V2000
   18.5696   -7.4662   26.7518 C   0  0  1  0  0  0  0  0  0  0  0  0
   16.7865   -9.1090   26.1433 C   0  0  1  0  0  0  0  0  0  0  0  0
   17.7722  -10.3803   25.8247 C   0  0  1  0  0  0  0  0  0  0  0  0
   16.9476  -11.4141   24.9046 C   0  0  2  0  0  0  0  0  0  0  0  0
   19.1734   -6.5758   27.9294 C   0  0  1  0  0  0  0  0  0  0  0  0
   18.2860   -5.2918   28.1636 C   0  0  2  0  0  0  0  0  0  0  0  0
   18.3001   -4.4146   26.8172 C   0  0  1  0  0  0  0  0  0  0  0  0
   17.6297   -5.2486   25.6007 C   0  0  1  0  0  0  0  0  0  0  0  0
   17.5900   -4.4711   24.2559 C   0  0  0  0  0  0  0  0  0  0  0  0
   15.6922  -11.9325   25.7633 C   0  0  1  0  0  0  0  0  0  0  0  0
   14.7563  -10.6563   26.0697 C   0  0  0  0  0  0  0  0  0  0  0  0
   15.5425   -9.5806   26.9338 C   0  0  2  0  0  0  0  0  0  0  0  0
   17.5111   -3.1863   26.9599 F   0  0  0  0  0  0  0  0  0  0  0  0
   19.2323   -7.4970   29.1572 N   0  0  0  0  0  0  0  0  0  0  0  0
   16.9027   -5.1400   23.2128 N   0  0  0  0  0  0  0  0  0  0  0  0
   14.8710  -12.8917   24.9589 N   0  0  0  0  0  0  0  0  0  0  0  0
   14.7109   -8.4118   27.2049 N   0  0  0  0  0  0  0  0  0  0  0  0
   17.3980   -8.1457   26.9713 O   0  0  0  0  0  0  0  0  0  0  0  0
   18.9494   -9.8737   25.0542 O   0  0  0  0  0  0  0  0  0  0  0  0
   17.7745  -12.4945   24.6318 O   0  0  0  0  0  0  0  0  0  0  0  0
   18.7788   -4.6722   29.0345 O   0  0  0  0  0  0  0  0  0  0  0  0
   18.4469   -6.5874   25.4655 O   0  0  0  0  0  0  0  0  0  0  0  0
  1  5  1  0  0  0  0
  1 18  1  1  0  0  0
  2 18  1  1  0  0  0
  2  3  1  0  0  0  0
  2 12  1  0  0  0  0
  3 19  1  6  0  0  0
  3  4  1  0  0  0  0
  4 20  1  1  0  0  0
  4 10  1  0  0  0  0
  5  6  1  0  0  0  0
  5 14  1  1  0  0  0
  6 21  1  1  0  0  0
  7 13  1  1  0  0  0
  7  6  1  0  0  0  0
  8  9  1  6  0  0  0
  8  7  1  0  0  0  0
 10 16  1  6  0  0  0
 11 10  1  0  0  0  0
 12 17  1  6  0  0  0
 12 11  1  0  0  0  0
 15  9  1  0  0  0  0
 22  8  1  0  0  0  0
 22  1  1  0  0  0  0
M  END
>  <CHROM.1>
-171.26531146,57.07380630,-174.75018101,17.37438743,-7.90509743,26.26704574
-0.86944541,1.15352591,2.69942786

>  <Name>
lig.pdb

>  <RI>
0

>  <Rbt.Current_Directory>
/home/itssahil/PROJECTS/Mol_Feturizer/New_Systems/rnas/5bxk

>  <Rbt.Executable>
rbdock ($Id: //depot/dev/client3/rdock/2013.1/src/exe/rbdock.cxx#4 $)

>  <Rbt.Library>
libRbt.so (2013.1, Build901 2013/11/27)

>  <Rbt.Parameter_File>
/export/apps/rDock/src/rDock_2013.1_src/data/scripts/dock_solv.prm

>  <Rbt.Receptor>
prm/pocket_docking_7.prm

>  <SCORE>
-8.30846

>  <SCORE.INTER>
-4.23708

>  <SCORE.INTER.CONST>
1

>  <SCORE.INTER.POLAR>
0

>  <SCORE.INTER.ROT>
3

>  <SCORE.INTER.SOLV>
14.6247

>  <SCORE.INTER.VDW>
-13.2996

>  <SCORE.INTER.norm>
-0.192594

>  <SCORE.INTRA>
-4.07138

>  <SCORE.INTRA.DIHEDRAL>
-6.54653

>  <SCORE.INTRA.DIHEDRAL.0>
7.18044

>  <SCORE.INTRA.POLAR>
0

>  <SCORE.INTRA.POLAR.0>
0

>  <SCORE.INTRA.REPUL>
0

>  <SCORE.INTRA.REPUL.0>
0

>  <SCORE.INTRA.SOLV>
-1.89835

>  <SCORE.INTRA.SOLV.lig_0>
-72.0615

>  <SCORE.INTRA.VDW>
0.151063

>  <SCORE.INTRA.VDW.0>
-1.54792

>  <SCORE.INTRA.norm>
-0.185063

>  <SCORE.RESTR>
0

>  <SCORE.RESTR.CAVITY>
0

>  <SCORE.RESTR.norm>
0

>  <SCORE.SYSTEM>
0

>  <SCORE.SYSTEM.CONST>
0

>  <SCORE.SYSTEM.DIHEDRAL>
0

>  <SCORE.SYSTEM.SOLV>
0

>  <SCORE.SYSTEM.norm>
0

>  <SCORE.heavy>
22

>  <SCORE.norm>
-0.377657

>  <RMSD>
6.589

$$$$
lig.pdb
 OpenBabel11021811523D
libRbt.so/2013.1/901 2013/11/27
 22 23  0  0  0  0  0  0  0  0999 V2000
   14.1983   -9.9237   27.5217 C   0  0  1  0  0  0  0  0  0  0  0  0
   15.9782  -10.8733   26.0457 C   0  0  1  0  0  0  0  0  0  0  0  0
   15.1606  -12.1741   25.4725 C   0  0  1  0  0  0  0  0  0  0  0  0
   16.2502  -13.2404   24.9519 C   0  0  2  0  0  0  0  0  0  0  0  0
   13.3728   -8.6123   27.8998 C   0  0  1  0  0  0  0  0  0  0  0  0
   14.3078   -7.5530   28.6034 C   0  0  2  0  0  0  0  0  0  0  0  0
   14.8695   -8.1986   29.9636 C   0  0  1  0  0  0  0  0  0  0  0  0
   15.7781   -9.4980   29.6311 C   0  0  1  0  0  0  0  0  0  0  0  0
   16.3750  -10.1837   30.8913 C   0  0  0  0  0  0  0  0  0  0  0  0
   17.0560  -12.5581   23.7406 C   0  0  1  0  0  0  0  0  0  0  0  0
   17.8327  -11.2779   24.3373 C   0  0  0  0  0  0  0  0  0  0  0  0
   16.8014  -10.2158   24.9122 C   0  0  2  0  0  0  0  0  0  0  0  0
   15.7351   -7.2649   30.6920 F   0  0  0  0  0  0  0  0  0  0  0  0
   12.7761   -8.1028   26.5791 N   0  0  0  0  0  0  0  0  0  0  0  0
   17.2335   -9.3562   31.6570 N   0  0  0  0  0  0  0  0  0  0  0  0
   18.0993  -13.4948   23.2157 N   0  0  0  0  0  0  0  0  0  0  0  0
   17.4930   -9.0578   25.4707 N   0  0  0  0  0  0  0  0  0  0  0  0
   15.1187   -9.8553   26.5065 O   0  0  0  0  0  0  0  0  0  0  0  0
   14.3920  -12.7759   26.6053 O   0  0  0  0  0  0  0  0  0  0  0  0
   15.5661  -14.3443   24.4630 O   0  0  0  0  0  0  0  0  0  0  0  0
   13.6486   -6.6135   28.8642 O   0  0  0  0  0  0  0  0  0  0  0  0
   14.8677  -10.4900   28.8151 O   0  0  0  0  0  0  0  0  0  0  0  0
  1  5  1  0  0  0  0
  1 18  1  6  0  0  0
  2 18  1  6  0  0  0
  2  3  1  0  0  0  0
  2 12  1  0  0  0  0
  3 19  1  1  0  0  0
  3  4  1  0  0  0  0
  4 20  1  6  0  0  0
  4 10  1  0  0  0  0
  5  6  1  0  0  0  0
  5 14  1  6  0  0  0
  6 21  1  1  0  0  0
  7 13  1  6  0  0  0
  7  6  1  0  0  0  0
  8  9  1  1  0  0  0
  8  7  1  0  0  0  0
 10 16  1  1  0  0  0
 11 10  1  0  0  0  0
 12 17  1  1  0  0  0
 12 11  1  0  0  0  0
 15  9  1  0  0  0  0
 22  8  1  0  0  0  0
 22  1  1  0  0  0  0
M  END
>  <CHROM.1>
177.69941121,61.20699153,-60.84650682,15.56840104,-10.22675927,27.19144910
1.87609425,-0.73217630,1.07484432

>  <Name>
lig.pdb

>  <RI>
0

>  <Rbt.Current_Directory>
/home/itssahil/PROJECTS/Mol_Feturizer/New_Systems/rnas/5bxk

>  <Rbt.Executable>
rbdock ($Id: //depot/dev/client3/rdock/2013.1/src/exe/rbdock.cxx#4 $)

>  <Rbt.Library>
libRbt.so (2013.1, Build901 2013/11/27)

>  <Rbt.Parameter_File>
/export/apps/rDock/src/rDock_2013.1_src/data/scripts/dock_solv.prm

>  <Rbt.Receptor>
prm/pocket_docking_5.prm

>  <SCORE>
-10.9964

>  <SCORE.INTER>
-7.17679

>  <SCORE.INTER.CONST>
1

>  <SCORE.INTER.POLAR>
0

>  <SCORE.INTER.ROT>
3

>  <SCORE.INTER.SOLV>
17.464

>  <SCORE.INTER.VDW>
-16.2059

>  <SCORE.INTER.norm>
-0.326218

>  <SCORE.INTRA>
-3.81965

>  <SCORE.INTRA.DIHEDRAL>
-7.0103

>  <SCORE.INTRA.DIHEDRAL.0>
7.18044

>  <SCORE.INTRA.POLAR>
0

>  <SCORE.INTRA.POLAR.0>
0

>  <SCORE.INTRA.REPUL>
0

>  <SCORE.INTRA.REPUL.0>
0

>  <SCORE.INTRA.SOLV>
-0.856611

>  <SCORE.INTRA.SOLV.lig_0>
-72.0615

>  <SCORE.INTRA.VDW>
0.113812

>  <SCORE.INTRA.VDW.0>
-1.54792

>  <SCORE.INTRA.norm>
-0.17362

>  <SCORE.RESTR>
0

>  <SCORE.RESTR.CAVITY>
0

>  <SCORE.RESTR.norm>
0

>  <SCORE.SYSTEM>
0

>  <SCORE.SYSTEM.CONST>
0

>  <SCORE.SYSTEM.DIHEDRAL>
0

>  <SCORE.SYSTEM.SOLV>
0

>  <SCORE.SYSTEM.norm>
0

>  <SCORE.heavy>
22

>  <SCORE.norm>
-0.499838

>  <RMSD>
6.590

$$$$
lig.pdb
 OpenBabel11021811523D
libRbt.so/2013.1/901 2013/11/27
 22 23  0  0  0  0  0  0  0  0999 V2000
   13.8969   -9.6205   27.4874 C   0  0  1  0  0  0  0  0  0  0  0  0
   15.7851  -10.5413   26.1327 C   0  0  1  0  0  0  0  0  0  0  0  0
   15.0525  -11.9176   25.6244 C   0  0  1  0  0  0  0  0  0  0  0  0
   16.2097  -12.9508   25.1903 C   0  0  2  0  0  0  0  0  0  0  0  0
   13.0856   -8.3004   27.8659 C   0  0  1  0  0  0  0  0  0  0  0  0
   14.0130   -7.2826   28.6375 C   0  0  2  0  0  0  0  0  0  0  0  0
   14.5008   -7.9770   30.0021 C   0  0  1  0  0  0  0  0  0  0  0  0
   15.3935   -9.2883   29.6729 C   0  0  1  0  0  0  0  0  0  0  0  0
   15.9198  -10.0210   30.9380 C   0  0  0  0  0  0  0  0  0  0  0  0
   17.0038  -12.2983   23.9551 C   0  0  1  0  0  0  0  0  0  0  0  0
   17.6963  -10.9434   24.4874 C   0  0  0  0  0  0  0  0  0  0  0  0
   16.5963   -9.9079   24.9770 C   0  0  2  0  0  0  0  0  0  0  0  0
   15.3549   -7.0837   30.7920 F   0  0  0  0  0  0  0  0  0  0  0  0
   12.5580   -7.7422   26.5356 N   0  0  0  0  0  0  0  0  0  0  0  0
   14.9042  -10.5072   31.7984 N   0  0  0  0  0  0  0  0  0  0  0  0
   18.1080  -13.2051   23.5080 N   0  0  0  0  0  0  0  0  0  0  0  0
   17.2113   -8.6820   25.4769 N   0  0  0  0  0  0  0  0  0  0  0  0
   14.8615   -9.5471   26.5144 O   0  0  0  0  0  0  0  0  0  0  0  0
   14.2928  -12.4925   26.7771 O   0  0  0  0  0  0  0  0  0  0  0  0
   15.5977  -14.1182   24.7568 O   0  0  0  0  0  0  0  0  0  0  0  0
   13.3644   -6.3350   28.8957 O   0  0  0  0  0  0  0  0  0  0  0  0
   14.4970  -10.2365   28.7921 O   0  0  0  0  0  0  0  0  0  0  0  0
  1  5  1  0  0  0  0
  1 18  1  6  0  0  0
  2 18  1  6  0  0  0
  2  3  1  0  0  0  0
  2 12  1  0  0  0  0
  3 19  1  1  0  0  0
  3  4  1  0  0  0  0
  4 20  1  6  0  0  0
  4 10  1  0  0  0  0
  5  6  1  0  0  0  0
  5 14  1  6  0  0  0
  6 21  1  1  0  0  0
  7 13  1  6  0  0  0
  7  6  1  0  0  0  0
  8  9  1  1  0  0  0
  8  7  1  0  0  0  0
 10 16  1  1  0  0  0
 11 10  1  0  0  0  0
 12 17  1  1  0  0  0
 12 11  1  0  0  0  0
 15  9  1  0  0  0  0
 22  8  1  0  0  0  0
 22  1  1  0  0  0  0
M  END
>  <CHROM.1>
172.41555398,59.03663347,60.76066571,15.24978950,-10.01534583,27.28202311
2.65500847,-1.20712440,1.92405057

>  <Name>
lig.pdb

>  <RI>
0

>  <Rbt.Current_Directory>
/home/itssahil/PROJECTS/Mol_Feturizer/New_Systems/rnas/5bxk

>  <Rbt.Executable>
rbdock ($Id: //depot/dev/client3/rdock/2013.1/src/exe/rbdock.cxx#4 $)

>  <Rbt.Library>
libRbt.so (2013.1, Build901 2013/11/27)

>  <Rbt.Parameter_File>
/export/apps/rDock/src/rDock_2013.1_src/data/scripts/dock_solv.prm

>  <Rbt.Receptor>
prm/pocket_docking_8.prm

>  <SCORE>
-11.4977

>  <SCORE.INTER>
-7.71505

>  <SCORE.INTER.CONST>
1

>  <SCORE.INTER.POLAR>
0

>  <SCORE.INTER.ROT>
3

>  <SCORE.INTER.SOLV>
17.5878

>  <SCORE.INTER.VDW>
-16.606

>  <SCORE.INTER.norm>
-0.350684

>  <SCORE.INTRA>
-3.78265

>  <SCORE.INTRA.DIHEDRAL>
-6.76849

>  <SCORE.INTRA.DIHEDRAL.0>
7.18044

>  <SCORE.INTRA.POLAR>
0

>  <SCORE.INTRA.POLAR.0>
0

>  <SCORE.INTRA.REPUL>
0

>  <SCORE.INTRA.REPUL.0>
0

>  <SCORE.INTRA.SOLV>
-0.768845

>  <SCORE.INTRA.SOLV.lig_0>
-72.0615

>  <SCORE.INTRA.VDW>
-0.0139799

>  <SCORE.INTRA.VDW.0>
-1.54792

>  <SCORE.INTRA.norm>
-0.171939

>  <SCORE.RESTR>
0

>  <SCORE.RESTR.CAVITY>
0

>  <SCORE.RESTR.norm>
0

>  <SCORE.SYSTEM>
0

>  <SCORE.SYSTEM.CONST>
0

>  <SCORE.SYSTEM.DIHEDRAL>
0

>  <SCORE.SYSTEM.SOLV>
0

>  <SCORE.SYSTEM.norm>
0

>  <SCORE.heavy>
22

>  <SCORE.norm>
-0.522623

>  <RMSD>
6.591

$$$$
lig.pdb
 OpenBabel11021811523D
libRbt.so/2013.1/901 2013/11/27
 22 23  0  0  0  0  0  0  0  0999 V2000
   15.9342   -8.6932   26.8858 C   0  0  1  0  0  0  0  0  0  0  0  0
   16.1732  -10.9172   25.7700 C   0  0  1  0  0  0  0  0  0  0  0  0
   14.8474  -11.7552   26.2487 C   0  0  1  0  0  0  0  0  0  0  0  0
   15.2017  -13.3233   26.1450 C   0  0  2  0  0  0  0  0  0  0  0  0
   15.5725   -7.1546   26.6712 C   0  0  1  0  0  0  0  0  0  0  0  0
   16.7530   -6.4052   25.9388 C   0  0  2  0  0  0  0  0  0  0  0  0
   18.0590   -6.4854   26.8716 C   0  0  1  0  0  0  0  0  0  0  0  0
   18.5135   -8.0285   27.0641 C   0  0  1  0  0  0  0  0  0  0  0  0
   19.7803   -8.2025   27.9469 C   0  0  0  0  0  0  0  0  0  0  0  0
   15.4949  -13.6530   24.5999 C   0  0  1  0  0  0  0  0  0  0  0  0
   16.7919  -12.8020   24.1618 C   0  0  0  0  0  0  0  0  0  0  0  0
   16.5106  -11.2447   24.2956 C   0  0  2  0  0  0  0  0  0  0  0  0
   19.2016   -5.7906   26.2689 F   0  0  0  0  0  0  0  0  0  0  0  0
   14.2642   -7.1446   25.8663 N   0  0  0  0  0  0  0  0  0  0  0  0
   20.1774   -9.5487   28.1427 N   0  0  0  0  0  0  0  0  0  0  0  0
   15.8459  -15.0988   24.4330 N   0  0  0  0  0  0  0  0  0  0  0  0
   17.6835  -10.4624   23.9170 N   0  0  0  0  0  0  0  0  0  0  0  0
   15.9682   -9.5226   25.7934 O   0  0  0  0  0  0  0  0  0  0  0  0
   14.5711  -11.4111   27.6775 O   0  0  0  0  0  0  0  0  0  0  0  0
   14.0836  -14.0400   26.5468 O   0  0  0  0  0  0  0  0  0  0  0  0
   16.4359   -5.2788   25.8126 O   0  0  0  0  0  0  0  0  0  0  0  0
   17.2791   -8.7909   27.6754 O   0  0  0  0  0  0  0  0  0  0  0  0
  1  5  1  0  0  0  0
  1 18  1  6  0  0  0
  2 18  1  6  0  0  0
  2  3  1  0  0  0  0
  2 12  1  0  0  0  0
  3 19  1  1  0  0  0
  3  4  1  0  0  0  0
  4 20  1  6  0  0  0
  4 10  1  0  0  0  0
  5  6  1  0  0  0  0
  5 14  1  6  0  0  0
  6 21  1  1  0  0  0
  7 13  1  6  0  0  0
  7  6  1  0  0  0  0
  8  9  1  1  0  0  0
  8  7  1  0  0  0  0
 10 16  1  1  0  0  0
 11 10  1  0  0  0  0
 12 17  1  1  0  0  0
 12 11  1  0  0  0  0
 15  9  1  0  0  0  0
 22  8  1  0  0  0  0
 22  1  1  0  0  0  0
M  END
>  <CHROM.1>
-175.31283158,75.76814170,179.00812141,16.61870739,-9.74441359,26.14725164
1.21581618,-0.15353275,0.13353295

>  <Name>
lig.pdb

>  <RI>
0

>  <Rbt.Current_Directory>
/home/itssahil/PROJECTS/Mol_Feturizer/New_Systems/rnas/5bxk

>  <Rbt.Executable>
rbdock ($Id: //depot/dev/client3/rdock/2013.1/src/exe/rbdock.cxx#4 $)

>  <Rbt.Library>
libRbt.so (2013.1, Build901 2013/11/27)

>  <Rbt.Parameter_File>
/export/apps/rDock/src/rDock_2013.1_src/data/scripts/dock_solv.prm

>  <Rbt.Receptor>
prm/pocket_docking_4.prm

>  <SCORE>
-8.75663

>  <SCORE.INTER>
-5.11132

>  <SCORE.INTER.CONST>
1

>  <SCORE.INTER.POLAR>
0

>  <SCORE.INTER.ROT>
3

>  <SCORE.INTER.SOLV>
21.3761

>  <SCORE.INTER.VDW>
-16.1329

>  <SCORE.INTER.norm>
-0.232333

>  <SCORE.INTRA>
-3.64531

>  <SCORE.INTRA.DIHEDRAL>
-5.77901

>  <SCORE.INTRA.DIHEDRAL.0>
7.18044

>  <SCORE.INTRA.POLAR>
0

>  <SCORE.INTRA.POLAR.0>
0

>  <SCORE.INTRA.REPUL>
0

>  <SCORE.INTRA.REPUL.0>
0

>  <SCORE.INTRA.SOLV>
-1.41225

>  <SCORE.INTRA.SOLV.lig_0>
-72.0615

>  <SCORE.INTRA.VDW>
-0.0496854

>  <SCORE.INTRA.VDW.0>
-1.54792

>  <SCORE.INTRA.norm>
-0.165696

>  <SCORE.RESTR>
0

>  <SCORE.RESTR.CAVITY>
0

>  <SCORE.RESTR.norm>
0

>  <SCORE.SYSTEM>
0

>  <SCORE.SYSTEM.CONST>
0

>  <SCORE.SYSTEM.DIHEDRAL>
0

>  <SCORE.SYSTEM.SOLV>
0

>  <SCORE.SYSTEM.norm>
0

>  <SCORE.heavy>
22

>  <SCORE.norm>
-0.398029

>  <RMSD>
6.592

$$$$
lig.pdb
 OpenBabel11021811523D
libRbt.so/2013.1/901 2013/11/27
 22 23  0  0  0  0  0  0  0  0999 V2000
   15.8502   -8.6457   26.9058 C   0  0  1  0  0  0  0  0  0  0  0  0
   16.1536  -10.8597   25.7856 C   0  0  1  0  0  0  0  0  0  0  0  0
   14.8400  -11.7135   26.2702 C   0  0  1  0  0  0  0  0  0  0  0  0
   15.2125  -13.2772   26.1646 C   0  0  2  0  0  0  0  0  0  0  0  0
   15.4979   -7.1057   26.6862 C   0  0  1  0  0  0  0  0  0  0  0  0
   16.7089   -6.3513   26.0112 C   0  0  2  0  0  0  0  0  0  0  0  0
   17.9730   -6.4379   26.9995 C   0  0  1  0  0  0  0  0  0  0  0  0
   18.4191   -7.9823   27.2011 C   0  0  1  0  0  0  0  0  0  0  0  0
   19.6463   -8.1624   28.1371 C   0  0  0  0  0  0  0  0  0  0  0  0
   15.5024  -13.6032   24.6181 C   0  0  1  0  0  0  0  0  0  0  0  0
   16.7872  -12.7367   24.1742 C   0  0  0  0  0  0  0  0  0  0  0  0
   16.4880  -11.1830   24.3096 C   0  0  2  0  0  0  0  0  0  0  0  0
   19.1406   -5.7390   26.4519 F   0  0  0  0  0  0  0  0  0  0  0  0
   14.2258   -7.0902   25.8251 N   0  0  0  0  0  0  0  0  0  0  0  0
   20.0461   -9.5087   28.3262 N   0  0  0  0  0  0  0  0  0  0  0  0
   15.8698  -15.0447   24.4493 N   0  0  0  0  0  0  0  0  0  0  0  0
   17.6498  -10.3867   23.9258 N   0  0  0  0  0  0  0  0  0  0  0  0
   15.9321   -9.4677   25.8103 O   0  0  0  0  0  0  0  0  0  0  0  0
   14.5663  -11.3729   27.7004 O   0  0  0  0  0  0  0  0  0  0  0  0
   14.1048  -14.0073   26.5714 O   0  0  0  0  0  0  0  0  0  0  0  0
   16.3973   -5.2241   25.8790 O   0  0  0  0  0  0  0  0  0  0  0  0
   17.1595   -8.7489   27.7526 O   0  0  0  0  0  0  0  0  0  0  0  0
  1  5  1  0  0  0  0
  1 18  1  6  0  0  0
  2 18  1  6  0  0  0
  2  3  1  0  0  0  0
  2 12  1  0  0  0  0
  3 19  1  1  0  0  0
  3  4  1  0  0  0  0
  4 20  1  6  0  0  0
  4 10  1  0  0  0  0
  5  6  1  0  0  0  0
  5 14  1  6  0  0  0
  6 21  1  1  0  0  0
  7 13  1  6  0  0  0
  7  6  1  0  0  0  0
  8  9  1  1  0  0  0
  8  7  1  0  0  0  0
 10 16  1  1  0  0  0
 11 10  1  0  0  0  0
 12 17  1  1  0  0  0
 12 11  1  0  0  0  0
 15  9  1  0  0  0  0
 22  8  1  0  0  0  0
 22  1  1  0  0  0  0
M  END
>  <CHROM.1>
-176.10668890,73.45435889,179.83031116,16.57446312,-9.69436174,26.20469604
1.22599195,-0.22306488,0.12556702

>  <Name>
lig.pdb

>  <RI>
0

>  <Rbt.Current_Directory>
/home/itssahil/PROJECTS/Mol_Feturizer/New_Systems/rnas/5bxk

>  <Rbt.Executable>
rbdock ($Id: //depot/dev/client3/rdock/2013.1/src/exe/rbdock.cxx#4 $)

>  <Rbt.Library>
libRbt.so (2013.1, Build901 2013/11/27)

>  <Rbt.Parameter_File>
/export/apps/rDock/src/rDock_2013.1_src/data/scripts/dock_solv.prm

>  <Rbt.Receptor>
prm/pocket_docking_3.prm

>  <SCORE>
-8.76019

>  <SCORE.INTER>
-4.92209

>  <SCORE.INTER.CONST>
1

>  <SCORE.INTER.POLAR>
0

>  <SCORE.INTER.ROT>
3

>  <SCORE.INTER.SOLV>
20.7812

>  <SCORE.INTER.VDW>
-15.8085

>  <SCORE.INTER.norm>
-0.223732

>  <SCORE.INTRA>
-3.8381

>  <SCORE.INTRA.DIHEDRAL>
-6.11624

>  <SCORE.INTRA.DIHEDRAL.0>
7.18044

>  <SCORE.INTRA.POLAR>
0

>  <SCORE.INTRA.POLAR.0>
0

>  <SCORE.INTRA.REPUL>
0

>  <SCORE.INTRA.REPUL.0>
0

>  <SCORE.INTRA.SOLV>
-1.50092

>  <SCORE.INTRA.SOLV.lig_0>
-72.0615

>  <SCORE.INTRA.VDW>
-0.0295166

>  <SCORE.INTRA.VDW.0>
-1.54792

>  <SCORE.INTRA.norm>
-0.174459

>  <SCORE.RESTR>
0

>  <SCORE.RESTR.CAVITY>
0

>  <SCORE.RESTR.norm>
0

>  <SCORE.SYSTEM>
0

>  <SCORE.SYSTEM.CONST>
0

>  <SCORE.SYSTEM.DIHEDRAL>
0

>  <SCORE.SYSTEM.SOLV>
0

>  <SCORE.SYSTEM.norm>
0

>  <SCORE.heavy>
22

>  <SCORE.norm>
-0.398191

>  <RMSD>
6.593

$$$$
lig.pdb
 OpenBabel11021811523D
libRbt.so/2013.1/901 2013/11/27
 22 23  0  0  0  0  0  0  0  0999 V2000
   15.8424   -8.6504   26.9164 C   0  0  1  0  0  0  0  0  0  0  0  0
   16.1353  -10.8622   25.7892 C   0  0  1  0  0  0  0  0  0  0  0  0
   14.8283  -11.7178   26.2881 C   0  0  1  0  0  0  0  0  0  0  0  0
   15.2006  -13.2811   26.1758 C   0  0  2  0  0  0  0  0  0  0  0  0
   15.4916   -7.1092   26.7027 C   0  0  1  0  0  0  0  0  0  0  0  0
   16.6985   -6.3562   26.0187 C   0  0  2  0  0  0  0  0  0  0  0  0
   17.9708   -6.4475   26.9960 C   0  0  1  0  0  0  0  0  0  0  0  0
   18.4152   -7.9933   27.1908 C   0  0  1  0  0  0  0  0  0  0  0  0
   19.6499   -8.1779   28.1160 C   0  0  0  0  0  0  0  0  0  0  0  0
   15.4724  -13.6045   24.6254 C   0  0  1  0  0  0  0  0  0  0  0  0
   16.7511  -12.7364   24.1676 C   0  0  0  0  0  0  0  0  0  0  0  0
   16.4524  -11.1831   24.3089 C   0  0  2  0  0  0  0  0  0  0  0  0
   19.1352   -5.7501   26.4398 F   0  0  0  0  0  0  0  0  0  0  0  0
   14.2123   -7.0892   25.8525 N   0  0  0  0  0  0  0  0  0  0  0  0
   20.0443   -9.5259   28.3044 N   0  0  0  0  0  0  0  0  0  0  0  0
   15.8389  -15.0455   24.4501 N   0  0  0  0  0  0  0  0  0  0  0  0
   17.6089  -10.3852   23.9125 N   0  0  0  0  0  0  0  0  0  0  0  0
   15.9130   -9.4704   25.8186 O   0  0  0  0  0  0  0  0  0  0  0  0
   14.5713  -11.3796   27.7220 O   0  0  0  0  0  0  0  0  0  0  0  0
   14.0984  -14.0126   26.5946 O   0  0  0  0  0  0  0  0  0  0  0  0
   16.3883   -5.2280   25.8913 O   0  0  0  0  0  0  0  0  0  0  0  0
   17.1586   -8.7581   27.7517 O   0  0  0  0  0  0  0  0  0  0  0  0
  1  5  1  0  0  0  0
  1 18  1  6  0  0  0
  2 18  1  6  0  0  0
  2  3  1  0  0  0  0
  2 12  1  0  0  0  0
  3 19  1  1  0  0  0
  3  4  1  0  0  0  0
  4 20  1  6  0  0  0
  4 10  1  0  0  0  0
  5  6  1  0  0  0  0
  5 14  1  6  0  0  0
  6 21  1  1  0  0  0
  7 13  1  6  0  0  0
  7  6  1  0  0  0  0
  8  9  1  1  0  0  0
  8  7  1  0  0  0  0
 10 16  1  1  0  0  0
 11 10  1  0  0  0  0
 12 17  1  1  0  0  0
 12 11  1  0  0  0  0
 15  9  1  0  0  0  0
 22  8  1  0  0  0  0
 22  1  1  0  0  0  0
M  END
>  <CHROM.1>
-176.32226720,73.39210021,179.53196380,16.56150711,-9.69973065,26.20819790
1.22426220,-0.21828573,0.12529457

>  <Name>
lig.pdb

>  <RI>
0

>  <Rbt.Current_Directory>
/home/itssahil/PROJECTS/Mol_Feturizer/New_Systems/rnas/5bxk

>  <Rbt.Executable>
rbdock ($Id: //depot/dev/client3/rdock/2013.1/src/exe/rbdock.cxx#4 $)

>  <Rbt.Library>
libRbt.so (2013.1, Build901 2013/11/27)

>  <Rbt.Parameter_File>
/export/apps/rDock/src/rDock_2013.1_src/data/scripts/dock_solv.prm

>  <Rbt.Receptor>
prm/pocket_docking_4.prm

>  <SCORE>
-8.77689

>  <SCORE.INTER>
-4.9322

>  <SCORE.INTER.CONST>
1

>  <SCORE.INTER.POLAR>
0

>  <SCORE.INTER.ROT>
3

>  <SCORE.INTER.SOLV>
20.9829

>  <SCORE.INTER.VDW>
-15.8824

>  <SCORE.INTER.norm>
-0.224191

>  <SCORE.INTRA>
-3.84469

>  <SCORE.INTRA.DIHEDRAL>
-6.13091

>  <SCORE.INTRA.DIHEDRAL.0>
7.18044

>  <SCORE.INTRA.POLAR>
0

>  <SCORE.INTRA.POLAR.0>
0

>  <SCORE.INTRA.REPUL>
0

>  <SCORE.INTRA.REPUL.0>
0

>  <SCORE.INTRA.SOLV>
-1.50026

>  <SCORE.INTRA.SOLV.lig_0>
-72.0615

>  <SCORE.INTRA.VDW>
-0.0291118

>  <SCORE.INTRA.VDW.0>
-1.54792

>  <SCORE.INTRA.norm>
-0.174759

>  <SCORE.RESTR>
0

>  <SCORE.RESTR.CAVITY>
0

>  <SCORE.RESTR.norm>
0

>  <SCORE.SYSTEM>
0

>  <SCORE.SYSTEM.CONST>
0

>  <SCORE.SYSTEM.DIHEDRAL>
0

>  <SCORE.SYSTEM.SOLV>
0

>  <SCORE.SYSTEM.norm>
0

>  <SCORE.heavy>
22

>  <SCORE.norm>
-0.39895

>  <RMSD>
6.596

$$$$
lig.pdb
 OpenBabel11021811523D
libRbt.so/2013.1/901 2013/11/27
 22 23  0  0  0  0  0  0  0  0999 V2000
   14.3174   -9.9350   27.6696 C   0  0  1  0  0  0  0  0  0  0  0  0
   15.9409  -10.8520   26.0047 C   0  0  1  0  0  0  0  0  0  0  0  0
   15.3048  -12.3365   25.7203 C   0  0  1  0  0  0  0  0  0  0  0  0
   16.4924  -13.2753   25.1697 C   0  0  2  0  0  0  0  0  0  0  0  0
   13.3445   -8.7191   28.0147 C   0  0  1  0  0  0  0  0  0  0  0  0
   14.1758   -7.4066   28.2936 C   0  0  2  0  0  0  0  0  0  0  0  0
   15.1201   -7.6672   29.5675 C   0  0  1  0  0  0  0  0  0  0  0  0
   16.1797   -8.8494   29.2443 C   0  0  1  0  0  0  0  0  0  0  0  0
   17.1451   -9.1635   30.4206 C   0  0  0  0  0  0  0  0  0  0  0  0
   16.9980  -12.6514   23.7779 C   0  0  1  0  0  0  0  0  0  0  0  0
   17.6011  -11.1903   24.0940 C   0  0  0  0  0  0  0  0  0  0  0  0
   16.4780  -10.2384   24.6895 C   0  0  2  0  0  0  0  0  0  0  0  0
   15.9147   -6.4819   29.9072 F   0  0  0  0  0  0  0  0  0  0  0  0
   12.4016   -8.5876   26.8091 N   0  0  0  0  0  0  0  0  0  0  0  0
   18.0058   -8.0944   30.7734 N   0  0  0  0  0  0  0  0  0  0  0  0
   18.1167  -13.4718   23.2148 N   0  0  0  0  0  0  0  0  0  0  0  0
   17.0152   -8.9159   24.9955 N   0  0  0  0  0  0  0  0  0  0  0  0
   14.9785   -9.9316   26.4673 O   0  0  0  0  0  0  0  0  0  0  0  0
   14.8107  -12.8870   27.0200 O   0  0  0  0  0  0  0  0  0  0  0  0
   15.9617  -14.5337   24.9246 O   0  0  0  0  0  0  0  0  0  0  0  0
   13.4116   -6.5481   28.5473 O   0  0  0  0  0  0  0  0  0  0  0  0
   15.3357  -10.1157   28.8410 O   0  0  0  0  0  0  0  0  0  0  0  0
  1  5  1  0  0  0  0
  1 18  1  6  0  0  0
  2 18  1  6  0  0  0
  2  3  1  0  0  0  0
  2 12  1  0  0  0  0
  3 19  1  1  0  0  0
  3  4  1  0  0  0  0
  4 20  1  6  0  0  0
  4 10  1  0  0  0  0
  5  6  1  0  0  0  0
  5 14  1  6  0  0  0
  6 21  1  1  0  0  0
  7 13  1  6  0  0  0
  7  6  1  0  0  0  0
  8  9  1  1  0  0  0
  8  7  1  0  0  0  0
 10 16  1  1  0  0  0
 11 10  1  0  0  0  0
 12 17  1  1  0  0  0
 12 11  1  0  0  0  0
 15  9  1  0  0  0  0
 22  8  1  0  0  0  0
 22  1  1  0  0  0  0
M  END
>  <CHROM.1>
175.48030366,68.01121493,-63.68410167,15.67087802,-10.04625084,27.06471437
1.78785810,-0.31216673,0.81563367

>  <Name>
lig.pdb

>  <RI>
0

>  <Rbt.Current_Directory>
/home/itssahil/PROJECTS/Mol_Feturizer/New_Systems/rnas/5bxk

>  <Rbt.Executable>
rbdock ($Id: //depot/dev/client3/rdock/2013.1/src/exe/rbdock.cxx#4 $)

>  <Rbt.Library>
libRbt.so (2013.1, Build901 2013/11/27)

>  <Rbt.Parameter_File>
/export/apps/rDock/src/rDock_2013.1_src/data/scripts/dock_solv.prm

>  <Rbt.Receptor>
prm/pocket_docking_4.prm

>  <SCORE>
-9.20056

>  <SCORE.INTER>
-5.53873

>  <SCORE.INTER.CONST>
1

>  <SCORE.INTER.POLAR>
0

>  <SCORE.INTER.ROT>
3

>  <SCORE.INTER.SOLV>
19.0158

>  <SCORE.INTER.VDW>
-15.6311

>  <SCORE.INTER.norm>
-0.25176

>  <SCORE.INTRA>
-3.66183

>  <SCORE.INTRA.DIHEDRAL>
-6.58815

>  <SCORE.INTRA.DIHEDRAL.0>
7.18044

>  <SCORE.INTRA.POLAR>
0

>  <SCORE.INTRA.POLAR.0>
0

>  <SCORE.INTRA.REPUL>
0

>  <SCORE.INTRA.REPUL.0>
0

>  <SCORE.INTRA.SOLV>
-0.793137

>  <SCORE.INTRA.SOLV.lig_0>
-72.0615

>  <SCORE.INTRA.VDW>
0.0288121

>  <SCORE.INTRA.VDW.0>
-1.54792

>  <SCORE.INTRA.norm>
-0.166447

>  <SCORE.RESTR>
0

>  <SCORE.RESTR.CAVITY>
0

>  <SCORE.RESTR.norm>
0

>  <SCORE.SYSTEM>
0

>  <SCORE.SYSTEM.CONST>
0

>  <SCORE.SYSTEM.DIHEDRAL>
0

>  <SCORE.SYSTEM.SOLV>
0

>  <SCORE.SYSTEM.norm>
0

>  <SCORE.heavy>
22

>  <SCORE.norm>
-0.418207

>  <RMSD>
6.597

$$$$
lig.pdb
 OpenBabel11021811523D
libRbt.so/2013.1/901 2013/11/27
 22 23  0  0  0  0  0  0  0  0999 V2000
   15.9319   -8.7227   26.9196 C   0  0  1  0  0  0  0  0  0  0  0  0
   16.1627  -10.9380   25.7849 C   0  0  1  0  0  0  0  0  0  0  0  0
   14.8470  -11.7827   26.2797 C   0  0  1  0  0  0  0  0  0  0  0  0
   15.2036  -13.3491   26.1600 C   0  0  2  0  0  0  0  0  0  0  0  0
   15.5531   -7.1860   26.7220 C   0  0  1  0  0  0  0  0  0  0  0  0
   16.7142   -6.4210   25.9750 C   0  0  2  0  0  0  0  0  0  0  0  0
   18.0366   -6.4960   26.8849 C   0  0  1  0  0  0  0  0  0  0  0  0
   18.5079   -8.0363   27.0588 C   0  0  1  0  0  0  0  0  0  0  0  0
   19.7911   -8.2051   27.9187 C   0  0  0  0  0  0  0  0  0  0  0  0
   15.4723  -13.6680   24.6081 C   0  0  1  0  0  0  0  0  0  0  0  0
   16.7598  -12.8107   24.1545 C   0  0  0  0  0  0  0  0  0  0  0  0
   16.4767  -11.2551   24.3031 C   0  0  2  0  0  0  0  0  0  0  0  0
   19.1625   -5.7868   26.2678 F   0  0  0  0  0  0  0  0  0  0  0  0
   14.2311   -7.1821   25.9396 N   0  0  0  0  0  0  0  0  0  0  0  0
   20.2192   -9.5469   28.0748 N   0  0  0  0  0  0  0  0  0  0  0  0
   15.8242  -15.1117   24.4261 N   0  0  0  0  0  0  0  0  0  0  0  0
   17.6413  -10.4672   23.9106 N   0  0  0  0  0  0  0  0  0  0  0  0
   15.9546   -9.5442   25.8209 O   0  0  0  0  0  0  0  0  0  0  0  0
   14.5933  -11.4487   27.7151 O   0  0  0  0  0  0  0  0  0  0  0  0
   14.0940  -14.0714   26.5752 O   0  0  0  0  0  0  0  0  0  0  0  0
   16.3851   -5.2966   25.8622 O   0  0  0  0  0  0  0  0  0  0  0  0
   17.2909   -8.8139   27.6855 O   0  0  0  0  0  0  0  0  0  0  0  0
  1  5  1  0  0  0  0
  1 18  1  6  0  0  0
  2 18  1  6  0  0  0
  2  3  1  0  0  0  0
  2 12  1  0  0  0  0
  3 19  1  1  0  0  0
  3  4  1  0  0  0  0
  4 20  1  6  0  0  0
  4 10  1  0  0  0  0
  5  6  1  0  0  0  0
  5 14  1  6  0  0  0
  6 21  1  1  0  0  0
  7 13  1  6  0  0  0
  7  6  1  0  0  0  0
  8  9  1  1  0  0  0
  8  7  1  0  0  0  0
 10 16  1  1  0  0  0
 11 10  1  0  0  0  0
 12 17  1  1  0  0  0
 12 11  1  0  0  0  0
 15  9  1  0  0  0  0
 22  8  1  0  0  0  0
 22  1  1  0  0  0  0
M  END
>  <CHROM.1>
-174.85532068,75.52796572,-179.73381497,16.60549684,-9.76187736,26.16160156
1.21834454,-0.13153763,0.14243422

>  <Name>
lig.pdb

>  <RI>
0

>  <Rbt.Current_Directory>
/home/itssahil/PROJECTS/Mol_Feturizer/New_Systems/rnas/5bxk

>  <Rbt.Executable>
rbdock ($Id: //depot/dev/client3/rdock/2013.1/src/exe/rbdock.cxx#4 $)

>  <Rbt.Library>
libRbt.so (2013.1, Build901 2013/11/27)

>  <Rbt.Parameter_File>
/export/apps/rDock/src/rDock_2013.1_src/data/scripts/dock_solv.prm

>  <Rbt.Receptor>
prm/pocket_docking_6.prm

>  <SCORE>
-8.7594

>  <SCORE.INTER>
-5.09835

>  <SCORE.INTER.CONST>
1

>  <SCORE.INTER.POLAR>
0

>  <SCORE.INTER.ROT>
3

>  <SCORE.INTER.SOLV>
21.5578

>  <SCORE.INTER.VDW>
-16.1848

>  <SCORE.INTER.norm>
-0.231743

>  <SCORE.INTRA>
-3.66105

>  <SCORE.INTRA.DIHEDRAL>
-5.794

>  <SCORE.INTRA.DIHEDRAL.0>
7.18044

>  <SCORE.INTRA.POLAR>
0

>  <SCORE.INTRA.POLAR.0>
0

>  <SCORE.INTRA.REPUL>
0

>  <SCORE.INTRA.REPUL.0>
0

>  <SCORE.INTRA.SOLV>
-1.4335

>  <SCORE.INTRA.SOLV.lig_0>
-72.0615

>  <SCORE.INTRA.VDW>
-0.0473008

>  <SCORE.INTRA.VDW.0>
-1.54792

>  <SCORE.INTRA.norm>
-0.166411

>  <SCORE.RESTR>
0

>  <SCORE.RESTR.CAVITY>
0

>  <SCORE.RESTR.norm>
0

>  <SCORE.SYSTEM>
0

>  <SCORE.SYSTEM.CONST>
0

>  <SCORE.SYSTEM.DIHEDRAL>
0

>  <SCORE.SYSTEM.SOLV>
0

>  <SCORE.SYSTEM.norm>
0

>  <SCORE.heavy>
22

>  <SCORE.norm>
-0.398154

>  <RMSD>
6.597

$$$$
lig.pdb
 OpenBabel11021811523D
libRbt.so/2013.1/901 2013/11/27
 22 23  0  0  0  0  0  0  0  0999 V2000
   18.5282   -7.1749   26.4552 C   0  0  1  0  0  0  0  0  0  0  0  0
   16.7928   -8.9149   25.9976 C   0  0  1  0  0  0  0  0  0  0  0  0
   17.7826  -10.2066   25.7951 C   0  0  1  0  0  0  0  0  0  0  0  0
   16.9698  -11.3124   24.9514 C   0  0  2  0  0  0  0  0  0  0  0  0
   19.1210   -6.1811   27.5529 C   0  0  1  0  0  0  0  0  0  0  0  0
   18.1834   -4.9230   27.7250 C   0  0  2  0  0  0  0  0  0  0  0  0
   18.1249   -4.1402   26.3228 C   0  0  1  0  0  0  0  0  0  0  0  0
   17.4621   -5.0832   25.1844 C   0  0  1  0  0  0  0  0  0  0  0  0
   17.3543   -4.4020   23.7920 C   0  0  0  0  0  0  0  0  0  0  0  0
   15.7037  -11.7611   25.8334 C   0  0  1  0  0  0  0  0  0  0  0  0
   14.7639  -10.4654   26.0239 C   0  0  0  0  0  0  0  0  0  0  0  0
   15.5390   -9.3225   26.8080 C   0  0  2  0  0  0  0  0  0  0  0  0
   17.2859   -2.9398   26.4046 F   0  0  0  0  0  0  0  0  0  0  0  0
   19.2515   -7.0128   28.8378 N   0  0  0  0  0  0  0  0  0  0  0  0
   16.6870   -5.1769   22.8109 N   0  0  0  0  0  0  0  0  0  0  0  0
   14.8929  -12.7831   25.0990 N   0  0  0  0  0  0  0  0  0  0  0  0
   14.7039   -8.1365   26.9733 N   0  0  0  0  0  0  0  0  0  0  0  0
   17.3938   -7.8871   26.7525 O   0  0  0  0  0  0  0  0  0  0  0  0
   18.9694   -9.7626   25.0009 O   0  0  0  0  0  0  0  0  0  0  0  0
   17.8001  -12.4103   24.7772 O   0  0  0  0  0  0  0  0  0  0  0  0
   18.6698   -4.2248   28.5382 O   0  0  0  0  0  0  0  0  0  0  0  0
   18.3344   -6.3921   25.1167 O   0  0  0  0  0  0  0  0  0  0  0  0
  1  5  1  0  0  0  0
  1 18  1  1  0  0  0
  2 18  1  1  0  0  0
  2  3  1  0  0  0  0
  2 12  1  0  0  0  0
  3 19  1  6  0  0  0
  3  4  1  0  0  0  0
  4 20  1  1  0  0  0
  4 10  1  0  0  0  0
  5  6  1  0  0  0  0
  5 14  1  1  0  0  0
  6 21  1  1  0  0  0
  7 13  1  1  0  0  0
  7  6  1  0  0  0  0
  8  9  1  6  0  0  0
  8  7  1  0  0  0  0
 10 16  1  6  0  0  0
 11 10  1  0  0  0  0
 12 17  1  6  0  0  0
 12 11  1  0  0  0  0
 15  9  1  0  0  0  0
 22  8  1  0  0  0  0
 22  1  1  0  0  0  0
M  END
>  <CHROM.1>
-172.42262554,61.07045551,-175.54540271,17.31272384,-7.68584918,26.03286393
-1.05289551,1.07528402,2.81856331

>  <Name>
lig.pdb

>  <RI>
0

>  <Rbt.Current_Directory>
/home/itssahil/PROJECTS/Mol_Feturizer/New_Systems/rnas/5bxk

>  <Rbt.Executable>
rbdock ($Id: //depot/dev/client3/rdock/2013.1/src/exe/rbdock.cxx#4 $)

>  <Rbt.Library>
libRbt.so (2013.1, Build901 2013/11/27)

>  <Rbt.Parameter_File>
/export/apps/rDock/src/rDock_2013.1_src/data/scripts/dock_solv.prm

>  <Rbt.Receptor>
prm/pocket_docking_6.prm

>  <SCORE>
-8.41557

>  <SCORE.INTER>
-4.25496

>  <SCORE.INTER.CONST>
1

>  <SCORE.INTER.POLAR>
0

>  <SCORE.INTER.ROT>
3

>  <SCORE.INTER.SOLV>
15.0748

>  <SCORE.INTER.VDW>
-13.4616

>  <SCORE.INTER.norm>
-0.193407

>  <SCORE.INTRA>
-4.1606

>  <SCORE.INTRA.DIHEDRAL>
-6.69779

>  <SCORE.INTRA.DIHEDRAL.0>
7.18044

>  <SCORE.INTRA.POLAR>
0

>  <SCORE.INTRA.POLAR.0>
0

>  <SCORE.INTRA.REPUL>
0

>  <SCORE.INTRA.REPUL.0>
0

>  <SCORE.INTRA.SOLV>
-1.83414

>  <SCORE.INTRA.SOLV.lig_0>
-72.0615

>  <SCORE.INTRA.VDW>
0.105361

>  <SCORE.INTRA.VDW.0>
-1.54792

>  <SCORE.INTRA.norm>
-0.189118

>  <SCORE.RESTR>
0

>  <SCORE.RESTR.CAVITY>
0

>  <SCORE.RESTR.norm>
0

>  <SCORE.SYSTEM>
0

>  <SCORE.SYSTEM.CONST>
0

>  <SCORE.SYSTEM.DIHEDRAL>
0

>  <SCORE.SYSTEM.SOLV>
0

>  <SCORE.SYSTEM.norm>
0

>  <SCORE.heavy>
22

>  <SCORE.norm>
-0.382526

>  <RMSD>
6.598

$$$$
lig.pdb
 OpenBabel11021811523D
libRbt.so/2013.1/901 2013/11/27
 22 23  0  0  0  0  0  0  0  0999 V2000
   15.6013   -8.5042   26.7674 C   0  0  1  0  0  0  0  0  0  0  0  0
   16.0808  -10.7371   25.7511 C   0  0  1  0  0  0  0  0  0  0  0  0
   14.7752  -11.6140   26.2156 C   0  0  1  0  0  0  0  0  0  0  0  0
   15.2002  -13.1676   26.1880 C   0  0  2  0  0  0  0  0  0  0  0  0
   15.2341   -6.9814   26.4669 C   0  0  1  0  0  0  0  0  0  0  0  0
   16.4882   -6.2117   25.8955 C   0  0  2  0  0  0  0  0  0  0  0  0
   17.6467   -6.2354   27.0089 C   0  0  1  0  0  0  0  0  0  0  0  0
   18.1090   -7.7604   27.3010 C   0  0  1  0  0  0  0  0  0  0  0  0
   19.2384   -7.8800   28.3614 C   0  0  0  0  0  0  0  0  0  0  0  0
   15.5648  -13.5436   24.6689 C   0  0  1  0  0  0  0  0  0  0  0  0
   16.8396  -12.6534   24.2434 C   0  0  0  0  0  0  0  0  0  0  0  0
   16.4868  -11.1062   24.3041 C   0  0  2  0  0  0  0  0  0  0  0  0
   18.8458   -5.5189   26.5616 F   0  0  0  0  0  0  0  0  0  0  0  0
   14.0566   -7.0255   25.4814 N   0  0  0  0  0  0  0  0  0  0  0  0
   19.6911   -9.2035   28.5884 N   0  0  0  0  0  0  0  0  0  0  0  0
   15.9836  -14.9778   24.5731 N   0  0  0  0  0  0  0  0  0  0  0  0
   17.6384  -10.2878   23.9364 N   0  0  0  0  0  0  0  0  0  0  0  0
   15.8154   -9.3531   25.7110 O   0  0  0  0  0  0  0  0  0  0  0  0
   14.4311  -11.2274   27.6186 O   0  0  0  0  0  0  0  0  0  0  0  0
   14.0996  -13.9172   26.5782 O   0  0  0  0  0  0  0  0  0  0  0  0
   16.1631   -5.0978   25.6986 O   0  0  0  0  0  0  0  0  0  0  0  0
   16.8195   -8.5470   27.7451 O   0  0  0  0  0  0  0  0  0  0  0  0
  1  5  1  0  0  0  0
  1 18  1  6  0  0  0
  2 18  1  6  0  0  0
  2  3  1  0  0  0  0
  2 12  1  0  0  0  0
  3 19  1  1  0  0  0
  3  4  1  0  0  0  0
  4 20  1  6  0  0  0
  4 10  1  0  0  0  0
  5  6  1  0  0  0  0
  5 14  1  6  0  0  0
  6 21  1  1  0  0  0
  7 13  1  6  0  0  0
  7  6  1  0  0  0  0
  8  9  1  1  0  0  0
  8  7  1  0  0  0  0
 10 16  1  1  0  0  0
 11 10  1  0  0  0  0
 12 17  1  1  0  0  0
 12 11  1  0  0  0  0
 15  9  1  0  0  0  0
 22  8  1  0  0  0  0
 22  1  1  0  0  0  0
M  END
>  <CHROM.1>
-176.49175010,70.18001086,-177.57793272,16.41875196,-9.55209113,26.19236801
1.26294056,-0.36137770,0.08548344

>  <Name>
lig.pdb

>  <RI>
0

>  <Rbt.Current_Directory>
/home/itssahil/PROJECTS/Mol_Feturizer/New_Systems/rnas/5bxk

>  <Rbt.Executable>
rbdock ($Id: //depot/dev/client3/rdock/2013.1/src/exe/rbdock.cxx#4 $)

>  <Rbt.Library>
libRbt.so (2013.1, Build901 2013/11/27)

>  <Rbt.Parameter_File>
/export/apps/rDock/src/rDock_2013.1_src/data/scripts/dock_solv.prm

>  <Rbt.Receptor>
prm/pocket_docking_4.prm

>  <SCORE>
-8.51433

>  <SCORE.INTER>
-4.49385

>  <SCORE.INTER.CONST>
1

>  <SCORE.INTER.POLAR>
0

>  <SCORE.INTER.ROT>
3

>  <SCORE.INTER.SOLV>
19.6514

>  <SCORE.INTER.VDW>
-15.1464

>  <SCORE.INTER.norm>
-0.204266

>  <SCORE.INTRA>
-4.02047

>  <SCORE.INTRA.DIHEDRAL>
-6.46562

>  <SCORE.INTRA.DIHEDRAL.0>
7.18044

>  <SCORE.INTRA.POLAR>
0

>  <SCORE.INTRA.POLAR.0>
0

>  <SCORE.INTRA.REPUL>
0

>  <SCORE.INTRA.REPUL.0>
0

>  <SCORE.INTRA.SOLV>
-1.63801

>  <SCORE.INTRA.SOLV.lig_0>
-72.0615

>  <SCORE.INTRA.VDW>
0.031339

>  <SCORE.INTRA.VDW.0>
-1.54792

>  <SCORE.INTRA.norm>
-0.182749

>  <SCORE.RESTR>
0

>  <SCORE.RESTR.CAVITY>
0

>  <SCORE.RESTR.norm>
0

>  <SCORE.SYSTEM>
0

>  <SCORE.SYSTEM.CONST>
0

>  <SCORE.SYSTEM.DIHEDRAL>
0

>  <SCORE.SYSTEM.SOLV>
0

>  <SCORE.SYSTEM.norm>
0

>  <SCORE.heavy>
22

>  <SCORE.norm>
-0.387015

>  <RMSD>
6.600

$$$$
lig.pdb
 OpenBabel11021811523D
libRbt.so/2013.1/901 2013/11/27
 22 23  0  0  0  0  0  0  0  0999 V2000
   13.8564   -9.6227   27.4342 C   0  0  1  0  0  0  0  0  0  0  0  0
   15.7939  -10.5413   26.1495 C   0  0  1  0  0  0  0  0  0  0  0  0
   15.0452  -11.8987   25.6147 C   0  0  1  0  0  0  0  0  0  0  0  0
   16.1907  -12.9479   25.1879 C   0  0  2  0  0  0  0  0  0  0  0  0
   13.0367   -8.3034   27.7972 C   0  0  1  0  0  0  0  0  0  0  0  0
   13.9236   -7.3188   28.6546 C   0  0  2  0  0  0  0  0  0  0  0  0
   14.3154   -8.0563   30.0275 C   0  0  1  0  0  0  0  0  0  0  0  0
   15.2132   -9.3692   29.7192 C   0  0  1  0  0  0  0  0  0  0  0  0
   15.6495  -10.1428   30.9942 C   0  0  0  0  0  0  0  0  0  0  0  0
   17.0161  -12.2968   23.9726 C   0  0  1  0  0  0  0  0  0  0  0  0
   17.7239  -10.9603   24.5305 C   0  0  0  0  0  0  0  0  0  0  0  0
   16.6347   -9.9104   25.0137 C   0  0  2  0  0  0  0  0  0  0  0  0
   15.1267   -7.1957   30.8951 F   0  0  0  0  0  0  0  0  0  0  0  0
   12.6015   -7.7025   26.4521 N   0  0  0  0  0  0  0  0  0  0  0  0
   14.5762  -10.5851   31.8068 N   0  0  0  0  0  0  0  0  0  0  0  0
   18.1109  -13.2185   23.5332 N   0  0  0  0  0  0  0  0  0  0  0  0
   17.2633   -8.7010   25.5367 N   0  0  0  0  0  0  0  0  0  0  0  0
   14.8821   -9.5347   26.5272 O   0  0  0  0  0  0  0  0  0  0  0  0
   14.2569  -12.4720   26.7488 O   0  0  0  0  0  0  0  0  0  0  0  0
   15.5650  -14.0995   24.7320 O   0  0  0  0  0  0  0  0  0  0  0  0
   13.2700   -6.3705   28.8975 O   0  0  0  0  0  0  0  0  0  0  0  0
   14.3650  -10.2817   28.7566 O   0  0  0  0  0  0  0  0  0  0  0  0
  1  5  1  0  0  0  0
  1 18  1  6  0  0  0
  2 18  1  6  0  0  0
  2  3  1  0  0  0  0
  2 12  1  0  0  0  0
  3 19  1  1  0  0  0
  3  4  1  0  0  0  0
  4 20  1  6  0  0  0
  4 10  1  0  0  0  0
  5  6  1  0  0  0  0
  5 14  1  6  0  0  0
  6 21  1  1  0  0  0
  7 13  1  1  0  0  0
  7  6  1  0  0  0  0
  8  9  1  1  0  0  0
  8  7  1  0  0  0  0
 10 16  1  1  0  0  0
 11 10  1  0  0  0  0
 12 17  1  1  0  0  0
 12 11  1  0  0  0  0
 15  9  1  0  0  0  0
 22  8  1  0  0  0  0
 22  1  1  0  0  0  0
M  END
>  <CHROM.1>
174.39604846,55.32651973,57.93551391,15.17956118,-10.04050741,27.29046773
2.84216238,-1.20924578,2.13412530

>  <Name>
lig.pdb

>  <RI>
0

>  <Rbt.Current_Directory>
/home/itssahil/PROJECTS/Mol_Feturizer/New_Systems/rnas/5bxk

>  <Rbt.Executable>
rbdock ($Id: //depot/dev/client3/rdock/2013.1/src/exe/rbdock.cxx#4 $)

>  <Rbt.Library>
libRbt.so (2013.1, Build901 2013/11/27)

>  <Rbt.Parameter_File>
/export/apps/rDock/src/rDock_2013.1_src/data/scripts/dock_solv.prm

>  <Rbt.Receptor>
prm/pocket_docking_6.prm

>  <SCORE>
-11.5514

>  <SCORE.INTER>
-7.83907

>  <SCORE.INTER.CONST>
1

>  <SCORE.INTER.POLAR>
0

>  <SCORE.INTER.ROT>
3

>  <SCORE.INTER.SOLV>
17.45

>  <SCORE.INTER.VDW>
-16.6427

>  <SCORE.INTER.norm>
-0.356321

>  <SCORE.INTRA>
-3.7123

>  <SCORE.INTRA.DIHEDRAL>
-6.77468

>  <SCORE.INTRA.DIHEDRAL.0>
7.18044

>  <SCORE.INTRA.POLAR>
0

>  <SCORE.INTRA.POLAR.0>
0

>  <SCORE.INTRA.REPUL>
0

>  <SCORE.INTRA.REPUL.0>
0

>  <SCORE.INTRA.SOLV>
-0.72606

>  <SCORE.INTRA.SOLV.lig_0>
-72.0615

>  <SCORE.INTRA.VDW>
0.0380684

>  <SCORE.INTRA.VDW.0>
-1.54792

>  <SCORE.INTRA.norm>
-0.168741

>  <SCORE.RESTR>
0

>  <SCORE.RESTR.CAVITY>
0

>  <SCORE.RESTR.norm>
0

>  <SCORE.SYSTEM>
0

>  <SCORE.SYSTEM.CONST>
0

>  <SCORE.SYSTEM.DIHEDRAL>
0

>  <SCORE.SYSTEM.SOLV>
0

>  <SCORE.SYSTEM.norm>
0

>  <SCORE.heavy>
22

>  <SCORE.norm>
-0.525062

>  <RMSD>
6.600

$$$$
lig.pdb
 OpenBabel11021811523D
libRbt.so/2013.1/901 2013/11/27
 22 23  0  0  0  0  0  0  0  0999 V2000
   13.9335   -9.6743   27.4569 C   0  0  1  0  0  0  0  0  0  0  0  0
   15.8510  -10.6302   26.1693 C   0  0  1  0  0  0  0  0  0  0  0  0
   15.0658  -11.9512   25.5970 C   0  0  1  0  0  0  0  0  0  0  0  0
   16.1823  -13.0277   25.1614 C   0  0  2  0  0  0  0  0  0  0  0  0
   13.1431   -8.3391   27.8265 C   0  0  1  0  0  0  0  0  0  0  0  0
   14.0474   -7.3837   28.6988 C   0  0  2  0  0  0  0  0  0  0  0  0
   14.4120   -8.1427   30.0674 C   0  0  1  0  0  0  0  0  0  0  0  0
   15.2803   -9.4739   29.7531 C   0  0  1  0  0  0  0  0  0  0  0  0
   15.6892  -10.2691   31.0239 C   0  0  0  0  0  0  0  0  0  0  0  0
   17.0431  -12.3783   23.9700 C   0  0  1  0  0  0  0  0  0  0  0  0
   17.7864  -11.0774   24.5645 C   0  0  0  0  0  0  0  0  0  0  0  0
   16.7256  -10.0032   25.0572 C   0  0  2  0  0  0  0  0  0  0  0  0
   15.2377   -7.3096   30.9482 F   0  0  0  0  0  0  0  0  0  0  0  0
   12.7317   -7.7158   26.4841 N   0  0  0  0  0  0  0  0  0  0  0  0
   14.6006  -10.6841   31.8306 N   0  0  0  0  0  0  0  0  0  0  0  0
   18.1133  -13.3256   23.5240 N   0  0  0  0  0  0  0  0  0  0  0  0
   17.3861   -8.8260   25.6131 N   0  0  0  0  0  0  0  0  0  0  0  0
   14.9673   -9.6028   26.5576 O   0  0  0  0  0  0  0  0  0  0  0  0
   14.2455  -12.5224   26.7093 O   0  0  0  0  0  0  0  0  0  0  0  0
   15.5257  -14.1487   24.6737 O   0  0  0  0  0  0  0  0  0  0  0  0
   13.4150   -6.4223   28.9459 O   0  0  0  0  0  0  0  0  0  0  0  0
   14.4171  -10.3571   28.7767 O   0  0  0  0  0  0  0  0  0  0  0  0
  1  5  1  0  0  0  0
  1 18  1  6  0  0  0
  2 18  1  6  0  0  0
  2  3  1  0  0  0  0
  2 12  1  0  0  0  0
  3 19  1  1  0  0  0
  3  4  1  0  0  0  0
  4 20  1  6  0  0  0
  4 10  1  0  0  0  0
  5  6  1  0  0  0  0
  5 14  1  6  0  0  0
  6 21  1  1  0  0  0
  7 13  1  1  0  0  0
  7  6  1  0  0  0  0
  8  9  1  1  0  0  0
  8  7  1  0  0  0  0
 10 16  1  1  0  0  0
 11 10  1  0  0  0  0
 12 17  1  1  0  0  0
 12 11  1  0  0  0  0
 15  9  1  0  0  0  0
 22  8  1  0  0  0  0
 22  1  1  0  0  0  0
M  END
>  <CHROM.1>
174.92211243,55.79194311,57.48118981,15.24256008,-10.11947247,27.30984727
2.88593910,-1.22779659,2.18712526

>  <Name>
lig.pdb

>  <RI>
0

>  <Rbt.Current_Directory>
/home/itssahil/PROJECTS/Mol_Feturizer/New_Systems/rnas/5bxk

>  <Rbt.Executable>
rbdock ($Id: //depot/dev/client3/rdock/2013.1/src/exe/rbdock.cxx#4 $)

>  <Rbt.Library>
libRbt.so (2013.1, Build901 2013/11/27)

>  <Rbt.Parameter_File>
/export/apps/rDock/src/rDock_2013.1_src/data/scripts/dock_solv.prm

>  <Rbt.Receptor>
prm/pocket_docking_7.prm

>  <SCORE>
-11.6469

>  <SCORE.INTER>
-7.88998

>  <SCORE.INTER.CONST>
1

>  <SCORE.INTER.POLAR>
0

>  <SCORE.INTER.ROT>
3

>  <SCORE.INTER.SOLV>
17.2818

>  <SCORE.INTER.VDW>
-16.6206

>  <SCORE.INTER.norm>
-0.358635

>  <SCORE.INTRA>
-3.75691

>  <SCORE.INTRA.DIHEDRAL>
-6.81382

>  <SCORE.INTRA.DIHEDRAL.0>
7.18044

>  <SCORE.INTRA.POLAR>
0

>  <SCORE.INTRA.POLAR.0>
0

>  <SCORE.INTRA.REPUL>
0

>  <SCORE.INTRA.REPUL.0>
0

>  <SCORE.INTRA.SOLV>
-0.730252

>  <SCORE.INTRA.SOLV.lig_0>
-72.0615

>  <SCORE.INTRA.VDW>
0.0151209

>  <SCORE.INTRA.VDW.0>
-1.54792

>  <SCORE.INTRA.norm>
-0.170769

>  <SCORE.RESTR>
0

>  <SCORE.RESTR.CAVITY>
0

>  <SCORE.RESTR.norm>
0

>  <SCORE.SYSTEM>
0

>  <SCORE.SYSTEM.CONST>
0

>  <SCORE.SYSTEM.DIHEDRAL>
0

>  <SCORE.SYSTEM.SOLV>
0

>  <SCORE.SYSTEM.norm>
0

>  <SCORE.heavy>
22

>  <SCORE.norm>
-0.529404

>  <RMSD>
6.600

$$$$
lig.pdb
 OpenBabel11021811523D
libRbt.so/2013.1/901 2013/11/27
 22 23  0  0  0  0  0  0  0  0999 V2000
   18.6067   -7.4871   26.6381 C   0  0  1  0  0  0  0  0  0  0  0  0
   16.8131   -9.1379   26.0848 C   0  0  1  0  0  0  0  0  0  0  0  0
   17.7683  -10.4259   25.7412 C   0  0  1  0  0  0  0  0  0  0  0  0
   16.9065  -11.4399   24.8335 C   0  0  2  0  0  0  0  0  0  0  0  0
   19.2565   -6.6085   27.8000 C   0  0  1  0  0  0  0  0  0  0  0  0
   18.3621   -5.3440   28.1042 C   0  0  2  0  0  0  0  0  0  0  0  0
   18.2928   -4.4421   26.7760 C   0  0  1  0  0  0  0  0  0  0  0  0
   17.5737   -5.2647   25.5798 C   0  0  1  0  0  0  0  0  0  0  0  0
   17.4523   -4.4634   24.2540 C   0  0  0  0  0  0  0  0  0  0  0  0
   15.6588  -11.9388   25.7147 C   0  0  1  0  0  0  0  0  0  0  0  0
   14.7533  -10.6468   26.0451 C   0  0  0  0  0  0  0  0  0  0  0  0
   15.5764   -9.5899   26.8979 C   0  0  2  0  0  0  0  0  0  0  0  0
   17.4930   -3.2300   26.9826 F   0  0  0  0  0  0  0  0  0  0  0  0
   19.3933   -7.5510   29.0053 N   0  0  0  0  0  0  0  0  0  0  0  0
   16.7665   -5.1453   23.2182 N   0  0  0  0  0  0  0  0  0  0  0  0
   14.8040  -12.8788   24.9229 N   0  0  0  0  0  0  0  0  0  0  0  0
   14.7724   -8.4070   27.1903 N   0  0  0  0  0  0  0  0  0  0  0  0
   17.4589   -8.1900   26.9044 O   0  0  0  0  0  0  0  0  0  0  0  0
   18.9394   -9.9378   24.9496 O   0  0  0  0  0  0  0  0  0  0  0  0
   17.7074  -12.5343   24.5397 O   0  0  0  0  0  0  0  0  0  0  0  0
   18.8895   -4.7324   28.9604 O   0  0  0  0  0  0  0  0  0  0  0  0
   18.4038   -6.5869   25.3770 O   0  0  0  0  0  0  0  0  0  0  0  0
  1  5  1  0  0  0  0
  1 18  1  1  0  0  0
  2 18  1  1  0  0  0
  2  3  1  0  0  0  0
  2 12  1  0  0  0  0
  3 19  1  6  0  0  0
  3  4  1  0  0  0  0
  4 20  1  1  0  0  0
  4 10  1  0  0  0  0
  5  6  1  0  0  0  0
  5 14  1  1  0  0  0
  6 21  1  1  0  0  0
  7 13  1  1  0  0  0
  7  6  1  0  0  0  0
  8  9  1  6  0  0  0
  8  7  1  0  0  0  0
 10 16  1  6  0  0  0
 11 10  1  0  0  0  0
 12 17  1  6  0  0  0
 12 11  1  0  0  0  0
 15  9  1  0  0  0  0
 22  8  1  0  0  0  0
 22  1  1  0  0  0  0
M  END
>  <CHROM.1>
-171.98021015,60.28542003,-177.03545415,17.37525784,-7.93048082,26.20913780
-0.99824757,1.05951005,2.84951853

>  <Name>
lig.pdb

>  <RI>
0

>  <Rbt.Current_Directory>
/home/itssahil/PROJECTS/Mol_Feturizer/New_Systems/rnas/5bxk

>  <Rbt.Executable>
rbdock ($Id: //depot/dev/client3/rdock/2013.1/src/exe/rbdock.cxx#4 $)

>  <Rbt.Library>
libRbt.so (2013.1, Build901 2013/11/27)

>  <Rbt.Parameter_File>
/export/apps/rDock/src/rDock_2013.1_src/data/scripts/dock_solv.prm

>  <Rbt.Receptor>
prm/pocket_docking_6.prm

>  <SCORE>
-8.32582

>  <SCORE.INTER>
-4.17119

>  <SCORE.INTER.CONST>
1

>  <SCORE.INTER.POLAR>
0

>  <SCORE.INTER.ROT>
3

>  <SCORE.INTER.SOLV>
14.7124

>  <SCORE.INTER.VDW>
-13.2849

>  <SCORE.INTER.norm>
-0.189599

>  <SCORE.INTRA>
-4.15463

>  <SCORE.INTRA.DIHEDRAL>
-6.7112

>  <SCORE.INTRA.DIHEDRAL.0>
7.18044

>  <SCORE.INTRA.POLAR>
0

>  <SCORE.INTRA.POLAR.0>
0

>  <SCORE.INTRA.REPUL>
0

>  <SCORE.INTRA.REPUL.0>
0

>  <SCORE.INTRA.SOLV>
-1.82668

>  <SCORE.INTRA.SOLV.lig_0>
-72.0615

>  <SCORE.INTRA.VDW>
0.114309

>  <SCORE.INTRA.VDW.0>
-1.54792

>  <SCORE.INTRA.norm>
-0.188847

>  <SCORE.RESTR>
0

>  <SCORE.RESTR.CAVITY>
0

>  <SCORE.RESTR.norm>
0

>  <SCORE.SYSTEM>
0

>  <SCORE.SYSTEM.CONST>
0

>  <SCORE.SYSTEM.DIHEDRAL>
0

>  <SCORE.SYSTEM.SOLV>
0

>  <SCORE.SYSTEM.norm>
0

>  <SCORE.heavy>
22

>  <SCORE.norm>
-0.378446

>  <RMSD>
6.602

$$$$
lig.pdb
 OpenBabel11021811523D
libRbt.so/2013.1/901 2013/11/27
 22 23  0  0  0  0  0  0  0  0999 V2000
   13.4645   -8.3571   27.1402 C   0  0  1  0  0  0  0  0  0  0  0  0
   15.4349   -9.5007   26.1114 C   0  0  1  0  0  0  0  0  0  0  0  0
   14.7055  -10.9155   25.7170 C   0  0  1  0  0  0  0  0  0  0  0  0
   15.8610  -12.0245   25.5434 C   0  0  2  0  0  0  0  0  0  0  0  0
   12.5887   -7.0243   27.1623 C   0  0  1  0  0  0  0  0  0  0  0  0
   13.4130   -5.8302   27.7835 C   0  0  2  0  0  0  0  0  0  0  0  0
   13.7854   -6.2078   29.3005 C   0  0  1  0  0  0  0  0  0  0  0  0
   14.7373   -7.5185   29.3318 C   0  0  1  0  0  0  0  0  0  0  0  0
   15.1584   -7.9522   30.7632 C   0  0  0  0  0  0  0  0  0  0  0  0
   16.7959  -11.5634   24.3205 C   0  0  1  0  0  0  0  0  0  0  0  0
   17.4821  -10.1656   24.7373 C   0  0  0  0  0  0  0  0  0  0  0  0
   16.3782   -9.0482   24.9711 C   0  0  2  0  0  0  0  0  0  0  0  0
   14.5382   -5.1349   29.9591 F   0  0  0  0  0  0  0  0  0  0  0  0
   12.1769   -6.7746   25.7036 N   0  0  0  0  0  0  0  0  0  0  0  0
   16.0539   -9.0498   30.8030 N   0  0  0  0  0  0  0  0  0  0  0  0
   17.9045  -12.5477   24.1120 N   0  0  0  0  0  0  0  0  0  0  0  0
   16.9858   -7.7806   25.3651 N   0  0  0  0  0  0  0  0  0  0  0  0
   14.5154   -8.4428   26.2623 O   0  0  0  0  0  0  0  0  0  0  0  0
   13.8158  -11.3117   26.8518 O   0  0  0  0  0  0  0  0  0  0  0  0
   15.2519  -13.2252   25.2074 O   0  0  0  0  0  0  0  0  0  0  0  0
   12.7197   -4.8791   27.7804 O   0  0  0  0  0  0  0  0  0  0  0  0
   13.9524   -8.6655   28.5923 O   0  0  0  0  0  0  0  0  0  0  0  0
  1  5  1  0  0  0  0
  1 18  1  6  0  0  0
  2 18  1  6  0  0  0
  2  3  1  0  0  0  0
  2 12  1  0  0  0  0
  3 19  1  1  0  0  0
  3  4  1  0  0  0  0
  4 20  1  6  0  0  0
  4 10  1  0  0  0  0
  5  6  1  0  0  0  0
  5 14  1  6  0  0  0
  6 21  1  1  0  0  0
  7 13  1  6  0  0  0
  7  6  1  0  0  0  0
  8  9  1  1  0  0  0
  8  7  1  0  0  0  0
 10 16  1  1  0  0  0
 11 10  1  0  0  0  0
 12 17  1  1  0  0  0
 12 11  1  0  0  0  0
 15  9  1  0  0  0  0
 22  8  1  0  0  0  0
 22  1  1  0  0  0  0
M  END
>  <CHROM.1>
177.70803136,59.61337503,-176.50415696,14.86959546,-8.77203669,27.03205365
2.27039851,-0.98300120,1.24310970

>  <Name>
lig.pdb

>  <RI>
0

>  <Rbt.Current_Directory>
/home/itssahil/PROJECTS/Mol_Feturizer/New_Systems/rnas/5bxk

>  <Rbt.Executable>
rbdock ($Id: //depot/dev/client3/rdock/2013.1/src/exe/rbdock.cxx#4 $)

>  <Rbt.Library>
libRbt.so (2013.1, Build901 2013/11/27)

>  <Rbt.Parameter_File>
/export/apps/rDock/src/rDock_2013.1_src/data/scripts/dock_solv.prm

>  <Rbt.Receptor>
prm/pocket_docking_6.prm

>  <SCORE>
-10.5794

>  <SCORE.INTER>
-6.24239

>  <SCORE.INTER.CONST>
1

>  <SCORE.INTER.POLAR>
0

>  <SCORE.INTER.ROT>
3

>  <SCORE.INTER.SOLV>
14.0732

>  <SCORE.INTER.VDW>
-14.4527

>  <SCORE.INTER.norm>
-0.283745

>  <SCORE.INTRA>
-4.33704

>  <SCORE.INTRA.DIHEDRAL>
-6.97455

>  <SCORE.INTRA.DIHEDRAL.0>
7.18044

>  <SCORE.INTRA.POLAR>
0

>  <SCORE.INTRA.POLAR.0>
0

>  <SCORE.INTRA.REPUL>
0

>  <SCORE.INTRA.REPUL.0>
0

>  <SCORE.INTRA.SOLV>
-1.85465

>  <SCORE.INTRA.SOLV.lig_0>
-72.0615

>  <SCORE.INTRA.VDW>
0.0775577

>  <SCORE.INTRA.VDW.0>
-1.54792

>  <SCORE.INTRA.norm>
-0.197138

>  <SCORE.RESTR>
0

>  <SCORE.RESTR.CAVITY>
0

>  <SCORE.RESTR.norm>
0

>  <SCORE.SYSTEM>
0

>  <SCORE.SYSTEM.CONST>
0

>  <SCORE.SYSTEM.DIHEDRAL>
0

>  <SCORE.SYSTEM.SOLV>
0

>  <SCORE.SYSTEM.norm>
0

>  <SCORE.heavy>
22

>  <SCORE.norm>
-0.480883

>  <RMSD>
6.607

$$$$
lig.pdb
 OpenBabel11021811523D
libRbt.so/2013.1/901 2013/11/27
 22 23  0  0  0  0  0  0  0  0999 V2000
   13.9482   -9.6183   27.5296 C   0  0  1  0  0  0  0  0  0  0  0  0
   15.8394  -10.5719   26.2020 C   0  0  1  0  0  0  0  0  0  0  0  0
   15.0287  -11.8785   25.6322 C   0  0  1  0  0  0  0  0  0  0  0  0
   16.1245  -12.9601   25.1585 C   0  0  2  0  0  0  0  0  0  0  0  0
   13.1606   -8.2856   27.9139 C   0  0  1  0  0  0  0  0  0  0  0  0
   14.0717   -7.3355   28.7849 C   0  0  2  0  0  0  0  0  0  0  0  0
   14.4475   -8.1030   30.1458 C   0  0  1  0  0  0  0  0  0  0  0  0
   15.3134   -9.4321   29.8161 C   0  0  1  0  0  0  0  0  0  0  0  0
   15.7327  -10.2352   31.0786 C   0  0  0  0  0  0  0  0  0  0  0  0
   16.9643  -12.3046   23.9556 C   0  0  1  0  0  0  0  0  0  0  0  0
   17.7335  -11.0179   24.5482 C   0  0  0  0  0  0  0  0  0  0  0  0
   16.6945   -9.9398   25.0777 C   0  0  2  0  0  0  0  0  0  0  0  0
   15.2801   -7.2753   31.0251 F   0  0  0  0  0  0  0  0  0  0  0  0
   12.7383   -7.6540   26.5788 N   0  0  0  0  0  0  0  0  0  0  0  0
   14.6495  -10.6738   31.8801 N   0  0  0  0  0  0  0  0  0  0  0  0
   18.0148  -13.2564   23.4741 N   0  0  0  0  0  0  0  0  0  0  0  0
   17.3788   -8.7756   25.6322 N   0  0  0  0  0  0  0  0  0  0  0  0
   14.9747   -9.5410   26.6225 O   0  0  0  0  0  0  0  0  0  0  0  0
   14.2284  -12.4552   26.7562 O   0  0  0  0  0  0  0  0  0  0  0  0
   15.4463  -14.0689   24.6728 O   0  0  0  0  0  0  0  0  0  0  0  0
   13.4412   -6.3758   29.0431 O   0  0  0  0  0  0  0  0  0  0  0  0
   14.4426  -10.3093   28.8412 O   0  0  0  0  0  0  0  0  0  0  0  0
  1  5  1  0  0  0  0
  1 18  1  6  0  0  0
  2 18  1  6  0  0  0
  2  3  1  0  0  0  0
  2 12  1  0  0  0  0
  3 19  1  1  0  0  0
  3  4  1  0  0  0  0
  4 20  1  6  0  0  0
  4 10  1  0  0  0  0
  5  6  1  0  0  0  0
  5 14  1  6  0  0  0
  6 21  1  1  0  0  0
  7 13  1  1  0  0  0
  7  6  1  0  0  0  0
  8  9  1  1  0  0  0
  8  7  1  0  0  0  0
 10 16  1  1  0  0  0
 11 10  1  0  0  0  0
 12 17  1  1  0  0  0
 12 11  1  0  0  0  0
 15  9  1  0  0  0  0
 22  8  1  0  0  0  0
 22  1  1  0  0  0  0
M  END
>  <CHROM.1>
176.22899678,54.73110937,58.43786687,15.23676313,-10.06526306,27.35428573
2.87272097,-1.24273281,2.18750143

>  <Name>
lig.pdb

>  <RI>
0

>  <Rbt.Current_Directory>
/home/itssahil/PROJECTS/Mol_Feturizer/New_Systems/rnas/5bxk

>  <Rbt.Executable>
rbdock ($Id: //depot/dev/client3/rdock/2013.1/src/exe/rbdock.cxx#4 $)

>  <Rbt.Library>
libRbt.so (2013.1, Build901 2013/11/27)

>  <Rbt.Parameter_File>
/export/apps/rDock/src/rDock_2013.1_src/data/scripts/dock_solv.prm

>  <Rbt.Receptor>
prm/pocket_docking_7.prm

>  <SCORE>
-11.6305

>  <SCORE.INTER>
-7.88948

>  <SCORE.INTER.CONST>
1

>  <SCORE.INTER.POLAR>
0

>  <SCORE.INTER.ROT>
3

>  <SCORE.INTER.SOLV>
17.0491

>  <SCORE.INTER.VDW>
-16.5427

>  <SCORE.INTER.norm>
-0.358613

>  <SCORE.INTRA>
-3.74101

>  <SCORE.INTRA.DIHEDRAL>
-6.83306

>  <SCORE.INTRA.DIHEDRAL.0>
7.18044

>  <SCORE.INTRA.POLAR>
0

>  <SCORE.INTRA.POLAR.0>
0

>  <SCORE.INTRA.REPUL>
0

>  <SCORE.INTRA.REPUL.0>
0

>  <SCORE.INTRA.SOLV>
-0.738814

>  <SCORE.INTRA.SOLV.lig_0>
-72.0615

>  <SCORE.INTRA.VDW>
0.0449258

>  <SCORE.INTRA.VDW.0>
-1.54792

>  <SCORE.INTRA.norm>
-0.170046

>  <SCORE.RESTR>
0

>  <SCORE.RESTR.CAVITY>
0

>  <SCORE.RESTR.norm>
0

>  <SCORE.SYSTEM>
0

>  <SCORE.SYSTEM.CONST>
0

>  <SCORE.SYSTEM.DIHEDRAL>
0

>  <SCORE.SYSTEM.SOLV>
0

>  <SCORE.SYSTEM.norm>
0

>  <SCORE.heavy>
22

>  <SCORE.norm>
-0.528659

>  <RMSD>
6.609

$$$$
lig.pdb
 OpenBabel11021811523D
libRbt.so/2013.1/901 2013/11/27
 22 23  0  0  0  0  0  0  0  0999 V2000
   18.7470   -8.5531   26.6473 C   0  0  1  0  0  0  0  0  0  0  0  0
   16.9421  -10.1528   25.9904 C   0  0  1  0  0  0  0  0  0  0  0  0
   17.8505  -11.4321   25.5133 C   0  0  1  0  0  0  0  0  0  0  0  0
   16.9463  -12.3267   24.5248 C   0  0  2  0  0  0  0  0  0  0  0  0
   19.4587   -7.8226   27.8737 C   0  0  1  0  0  0  0  0  0  0  0  0
   18.5701   -6.6282   28.3982 C   0  0  2  0  0  0  0  0  0  0  0  0
   18.4051   -5.5602   27.2089 C   0  0  1  0  0  0  0  0  0  0  0  0
   17.6213   -6.2321   25.9602 C   0  0  1  0  0  0  0  0  0  0  0  0
   17.4057   -5.2652   24.7631 C   0  0  0  0  0  0  0  0  0  0  0  0
   15.6918  -12.8671   25.3712 C   0  0  1  0  0  0  0  0  0  0  0  0
   14.8330  -11.5842   25.8348 C   0  0  0  0  0  0  0  0  0  0  0  0
   15.6994  -10.6404   26.7732 C   0  0  2  0  0  0  0  0  0  0  0  0
   17.6053   -4.4029   27.6240 F   0  0  0  0  0  0  0  0  0  0  0  0
   19.6838   -8.9132   28.9319 N   0  0  0  0  0  0  0  0  0  0  0  0
   16.5738   -5.7793   23.7375 N   0  0  0  0  0  0  0  0  0  0  0  0
   14.7983  -13.6994   24.5049 N   0  0  0  0  0  0  0  0  0  0  0  0
   14.9381   -9.4657   27.1874 N   0  0  0  0  0  0  0  0  0  0  0  0
   17.6273   -9.3087   26.8877 O   0  0  0  0  0  0  0  0  0  0  0  0
   19.0290  -10.9085   24.7561 O   0  0  0  0  0  0  0  0  0  0  0  0
   17.7074  -13.4132   24.1177 O   0  0  0  0  0  0  0  0  0  0  0  0
   19.1434   -6.1244   29.2942 O   0  0  0  0  0  0  0  0  0  0  0  0
   18.4530   -7.4984   25.5324 O   0  0  0  0  0  0  0  0  0  0  0  0
  1  5  1  0  0  0  0
  1 18  1  1  0  0  0
  2 18  1  1  0  0  0
  2  3  1  0  0  0  0
  2 12  1  0  0  0  0
  3 19  1  6  0  0  0
  3  4  1  0  0  0  0
  4 20  1  1  0  0  0
  4 10  1  0  0  0  0
  5  6  1  0  0  0  0
  5 14  1  1  0  0  0
  6 21  1  1  0  0  0
  7 13  1  1  0  0  0
  7  6  1  0  0  0  0
  8  9  1  6  0  0  0
  8  7  1  0  0  0  0
 10 16  1  6  0  0  0
 11 10  1  0  0  0  0
 12 17  1  6  0  0  0
 12 11  1  0  0  0  0
 15  9  1  0  0  0  0
 22  8  1  0  0  0  0
 22  1  1  0  0  0  0
M  END
>  <CHROM.1>
-171.99303219,64.90061294,-172.19258194,17.47017989,-8.95990055,26.25900041
-1.12880141,0.88444771,3.11770010

>  <Name>
lig.pdb

>  <RI>
0

>  <Rbt.Current_Directory>
/home/itssahil/PROJECTS/Mol_Feturizer/New_Systems/rnas/5bxk

>  <Rbt.Executable>
rbdock ($Id: //depot/dev/client3/rdock/2013.1/src/exe/rbdock.cxx#4 $)

>  <Rbt.Library>
libRbt.so (2013.1, Build901 2013/11/27)

>  <Rbt.Parameter_File>
/export/apps/rDock/src/rDock_2013.1_src/data/scripts/dock_solv.prm

>  <Rbt.Receptor>
prm/pocket_docking_6.prm

>  <SCORE>
-7.94642

>  <SCORE.INTER>
-3.9277

>  <SCORE.INTER.CONST>
1

>  <SCORE.INTER.POLAR>
0

>  <SCORE.INTER.ROT>
3

>  <SCORE.INTER.SOLV>
17.1759

>  <SCORE.INTER.VDW>
-13.9438

>  <SCORE.INTER.norm>
-0.178532

>  <SCORE.INTRA>
-4.01872

>  <SCORE.INTRA.DIHEDRAL>
-6.408

>  <SCORE.INTRA.DIHEDRAL.0>
7.18044

>  <SCORE.INTRA.POLAR>
0

>  <SCORE.INTRA.POLAR.0>
0

>  <SCORE.INTRA.REPUL>
0

>  <SCORE.INTRA.REPUL.0>
0

>  <SCORE.INTRA.SOLV>
-1.8038

>  <SCORE.INTRA.SOLV.lig_0>
-72.0615

>  <SCORE.INTRA.VDW>
0.087181

>  <SCORE.INTRA.VDW.0>
-1.54792

>  <SCORE.INTRA.norm>
-0.182669

>  <SCORE.RESTR>
0

>  <SCORE.RESTR.CAVITY>
0

>  <SCORE.RESTR.norm>
0

>  <SCORE.SYSTEM>
0

>  <SCORE.SYSTEM.CONST>
0

>  <SCORE.SYSTEM.DIHEDRAL>
0

>  <SCORE.SYSTEM.SOLV>
0

>  <SCORE.SYSTEM.norm>
0

>  <SCORE.heavy>
22

>  <SCORE.norm>
-0.361201

>  <RMSD>
6.613

$$$$
lig.pdb
 OpenBabel11021811523D
libRbt.so/2013.1/901 2013/11/27
 22 23  0  0  0  0  0  0  0  0999 V2000
   15.8593   -8.7315   26.7930 C   0  0  1  0  0  0  0  0  0  0  0  0
   16.1781  -10.9790   25.7463 C   0  0  1  0  0  0  0  0  0  0  0  0
   14.8336  -11.7951   26.2106 C   0  0  1  0  0  0  0  0  0  0  0  0
   15.1801  -13.3676   26.1617 C   0  0  2  0  0  0  0  0  0  0  0  0
   15.5010   -7.2016   26.5189 C   0  0  1  0  0  0  0  0  0  0  0  0
   16.7259   -6.4553   25.8602 C   0  0  2  0  0  0  0  0  0  0  0  0
   17.9596   -6.5023   26.8888 C   0  0  1  0  0  0  0  0  0  0  0  0
   18.4122   -8.0362   27.1478 C   0  0  1  0  0  0  0  0  0  0  0  0
   19.6113   -8.1784   28.1257 C   0  0  0  0  0  0  0  0  0  0  0  0
   15.5146  -13.7431   24.6355 C   0  0  1  0  0  0  0  0  0  0  0  0
   16.8293  -12.9126   24.2106 C   0  0  0  0  0  0  0  0  0  0  0  0
   16.5548  -11.3506   24.2920 C   0  0  2  0  0  0  0  0  0  0  0  0
   19.1375   -5.8082   26.3576 F   0  0  0  0  0  0  0  0  0  0  0  0
   14.2561   -7.2222   25.6192 N   0  0  0  0  0  0  0  0  0  0  0  0
   20.0280   -9.5140   28.3512 N   0  0  0  0  0  0  0  0  0  0  0  0
   15.8605  -15.1951   24.5199 N   0  0  0  0  0  0  0  0  0  0  0  0
   17.7433  -10.5864   23.9249 N   0  0  0  0  0  0  0  0  0  0  0  0
   15.9820   -9.5832   25.7243 O   0  0  0  0  0  0  0  0  0  0  0  0
   14.5193  -11.4086   27.6206 O   0  0  0  0  0  0  0  0  0  0  0  0
   14.0462  -14.0659   26.5516 O   0  0  0  0  0  0  0  0  0  0  0  0
   16.4090   -5.3352   25.6865 O   0  0  0  0  0  0  0  0  0  0  0  0
   17.1426   -8.7986   27.6821 O   0  0  0  0  0  0  0  0  0  0  0  0
  1  5  1  0  0  0  0
  1 18  1  6  0  0  0
  2 18  1  6  0  0  0
  2  3  1  0  0  0  0
  2 12  1  0  0  0  0
  3 19  1  1  0  0  0
  3  4  1  0  0  0  0
  4 20  1  6  0  0  0
  4 10  1  0  0  0  0
  5  6  1  0  0  0  0
  5 14  1  6  0  0  0
  6 21  1  1  0  0  0
  7 13  1  6  0  0  0
  7  6  1  0  0  0  0
  8  9  1  1  0  0  0
  8  7  1  0  0  0  0
 10 16  1  1  0  0  0
 11 10  1  0  0  0  0
 12 17  1  1  0  0  0
 12 11  1  0  0  0  0
 15  9  1  0  0  0  0
 22  8  1  0  0  0  0
 22  1  1  0  0  0  0
M  END
>  <CHROM.1>
-174.14154605,72.38239118,-179.36594921,16.57886088,-9.78954832,26.14323401
1.22165498,-0.24669176,0.10053712

>  <Name>
lig.pdb

>  <RI>
0

>  <Rbt.Current_Directory>
/home/itssahil/PROJECTS/Mol_Feturizer/New_Systems/rnas/5bxk

>  <Rbt.Executable>
rbdock ($Id: //depot/dev/client3/rdock/2013.1/src/exe/rbdock.cxx#4 $)

>  <Rbt.Library>
libRbt.so (2013.1, Build901 2013/11/27)

>  <Rbt.Parameter_File>
/export/apps/rDock/src/rDock_2013.1_src/data/scripts/dock_solv.prm

>  <Rbt.Receptor>
prm/pocket_docking_4.prm

>  <SCORE>
-8.74956

>  <SCORE.INTER>
-4.92137

>  <SCORE.INTER.CONST>
1

>  <SCORE.INTER.POLAR>
0

>  <SCORE.INTER.ROT>
3

>  <SCORE.INTER.SOLV>
21.0754

>  <SCORE.INTER.VDW>
-15.906

>  <SCORE.INTER.norm>
-0.223699

>  <SCORE.INTRA>
-3.82819

>  <SCORE.INTRA.DIHEDRAL>
-6.15119

>  <SCORE.INTRA.DIHEDRAL.0>
7.18044

>  <SCORE.INTRA.POLAR>
0

>  <SCORE.INTRA.POLAR.0>
0

>  <SCORE.INTRA.REPUL>
0

>  <SCORE.INTRA.REPUL.0>
0

>  <SCORE.INTRA.SOLV>
-1.53597

>  <SCORE.INTRA.SOLV.lig_0>
-72.0615

>  <SCORE.INTRA.VDW>
0.0153895

>  <SCORE.INTRA.VDW.0>
-1.54792

>  <SCORE.INTRA.norm>
-0.174009

>  <SCORE.RESTR>
0

>  <SCORE.RESTR.CAVITY>
0

>  <SCORE.RESTR.norm>
0

>  <SCORE.SYSTEM>
0

>  <SCORE.SYSTEM.CONST>
0

>  <SCORE.SYSTEM.DIHEDRAL>
0

>  <SCORE.SYSTEM.SOLV>
0

>  <SCORE.SYSTEM.norm>
0

>  <SCORE.heavy>
22

>  <SCORE.norm>
-0.397707

>  <RMSD>
6.614

$$$$
lig.pdb
 OpenBabel11021811523D
libRbt.so/2013.1/901 2013/11/27
 22 23  0  0  0  0  0  0  0  0999 V2000
   18.7170   -7.7015   26.5914 C   0  0  1  0  0  0  0  0  0  0  0  0
   16.9331   -9.3571   26.0212 C   0  0  1  0  0  0  0  0  0  0  0  0
   17.8824  -10.6655   25.7446 C   0  0  1  0  0  0  0  0  0  0  0  0
   17.0406  -11.6904   24.8302 C   0  0  2  0  0  0  0  0  0  0  0  0
   19.4106   -6.9093   27.7895 C   0  0  1  0  0  0  0  0  0  0  0  0
   18.5494   -5.6494   28.1922 C   0  0  2  0  0  0  0  0  0  0  0  0
   18.4686   -4.6656   26.9242 C   0  0  1  0  0  0  0  0  0  0  0  0
   17.7061   -5.3984   25.6969 C   0  0  1  0  0  0  0  0  0  0  0  0
   17.5713   -4.5142   24.4263 C   0  0  0  0  0  0  0  0  0  0  0  0
   15.7545  -12.1511   25.6764 C   0  0  1  0  0  0  0  0  0  0  0  0
   14.8554  -10.8397   25.9415 C   0  0  0  0  0  0  0  0  0  0  0  0
   15.6612   -9.7728   26.7985 C   0  0  2  0  0  0  0  0  0  0  0  0
   17.6986   -3.4537   27.2241 F   0  0  0  0  0  0  0  0  0  0  0  0
   19.5553   -7.9273   28.9308 N   0  0  0  0  0  0  0  0  0  0  0  0
   16.8456   -5.1159   23.3683 N   0  0  0  0  0  0  0  0  0  0  0  0
   14.9165  -13.0992   24.8763 N   0  0  0  0  0  0  0  0  0  0  0  0
   14.8634   -8.5727   27.0322 N   0  0  0  0  0  0  0  0  0  0  0  0
   17.5614   -8.3977   26.8410 O   0  0  0  0  0  0  0  0  0  0  0  0
   19.0884  -10.2123   24.9854 O   0  0  0  0  0  0  0  0  0  0  0  0
   17.8365  -12.8020   24.5930 O   0  0  0  0  0  0  0  0  0  0  0  0
   19.1083   -5.1022   29.0718 O   0  0  0  0  0  0  0  0  0  0  0  0
   18.5042   -6.7210   25.3934 O   0  0  0  0  0  0  0  0  0  0  0  0
  1  5  1  0  0  0  0
  1 18  1  1  0  0  0
  2 18  1  1  0  0  0
  2  3  1  0  0  0  0
  2 12  1  0  0  0  0
  3 19  1  6  0  0  0
  3  4  1  0  0  0  0
  4 20  1  1  0  0  0
  4 10  1  0  0  0  0
  5  6  1  0  0  0  0
  5 14  1  1  0  0  0
  6 21  1  1  0  0  0
  7 13  1  1  0  0  0
  7  6  1  0  0  0  0
  8  9  1  6  0  0  0
  8  7  1  0  0  0  0
 10 16  1  6  0  0  0
 11 10  1  0  0  0  0
 12 17  1  6  0  0  0
 12 11  1  0  0  0  0
 15  9  1  0  0  0  0
 22  8  1  0  0  0  0
 22  1  1  0  0  0  0
M  END
>  <CHROM.1>
-166.67121898,61.37700428,-176.87951738,17.50763360,-8.14662034,26.23286561
-1.10441491,0.93900525,2.98835020

>  <Name>
lig.pdb

>  <RI>
0

>  <Rbt.Current_Directory>
/home/itssahil/PROJECTS/Mol_Feturizer/New_Systems/rnas/5bxk

>  <Rbt.Executable>
rbdock ($Id: //depot/dev/client3/rdock/2013.1/src/exe/rbdock.cxx#4 $)

>  <Rbt.Library>
libRbt.so (2013.1, Build901 2013/11/27)

>  <Rbt.Parameter_File>
/export/apps/rDock/src/rDock_2013.1_src/data/scripts/dock_solv.prm

>  <Rbt.Receptor>
prm/pocket_docking_5.prm

>  <SCORE>
-8.18645

>  <SCORE.INTER>
-4.32878

>  <SCORE.INTER.CONST>
1

>  <SCORE.INTER.POLAR>
0

>  <SCORE.INTER.ROT>
3

>  <SCORE.INTER.SOLV>
14.8432

>  <SCORE.INTER.VDW>
-13.4336

>  <SCORE.INTER.norm>
-0.196763

>  <SCORE.INTRA>
-3.85767

>  <SCORE.INTRA.DIHEDRAL>
-6.18961

>  <SCORE.INTRA.DIHEDRAL.0>
7.18044

>  <SCORE.INTRA.POLAR>
0

>  <SCORE.INTRA.POLAR.0>
0

>  <SCORE.INTRA.REPUL>
0

>  <SCORE.INTRA.REPUL.0>
0

>  <SCORE.INTRA.SOLV>
-1.75233

>  <SCORE.INTRA.SOLV.lig_0>
-72.0615

>  <SCORE.INTRA.VDW>
0.113299

>  <SCORE.INTRA.VDW.0>
-1.54792

>  <SCORE.INTRA.norm>
-0.175349

>  <SCORE.RESTR>
0

>  <SCORE.RESTR.CAVITY>
0

>  <SCORE.RESTR.norm>
0

>  <SCORE.SYSTEM>
0

>  <SCORE.SYSTEM.CONST>
0

>  <SCORE.SYSTEM.DIHEDRAL>
0

>  <SCORE.SYSTEM.SOLV>
0

>  <SCORE.SYSTEM.norm>
0

>  <SCORE.heavy>
22

>  <SCORE.norm>
-0.372111

>  <RMSD>
6.615

$$$$
lig.pdb
 OpenBabel11021811523D
libRbt.so/2013.1/901 2013/11/27
 22 23  0  0  0  0  0  0  0  0999 V2000
   18.4868   -7.1155   26.4384 C   0  0  1  0  0  0  0  0  0  0  0  0
   16.7522   -8.8460   25.9435 C   0  0  1  0  0  0  0  0  0  0  0  0
   17.7557  -10.1343   25.7931 C   0  0  1  0  0  0  0  0  0  0  0  0
   16.9738  -11.2618   24.9491 C   0  0  2  0  0  0  0  0  0  0  0  0
   19.0555   -6.1241   27.5510 C   0  0  1  0  0  0  0  0  0  0  0  0
   18.1399   -4.8441   27.6723 C   0  0  2  0  0  0  0  0  0  0  0  0
   18.1573   -4.0741   26.2619 C   0  0  1  0  0  0  0  0  0  0  0  0
   17.5215   -5.0137   25.1053 C   0  0  1  0  0  0  0  0  0  0  0  0
   17.4871   -4.3441   23.7035 C   0  0  0  0  0  0  0  0  0  0  0  0
   15.6870  -11.7026   25.8047 C   0  0  1  0  0  0  0  0  0  0  0  0
   14.7337  -10.4103   25.9444 C   0  0  0  0  0  0  0  0  0  0  0  0
   15.4794   -9.2470   26.7271 C   0  0  2  0  0  0  0  0  0  0  0  0
   17.3427   -2.8549   26.2977 F   0  0  0  0  0  0  0  0  0  0  0  0
   19.1137   -6.9456   28.8477 N   0  0  0  0  0  0  0  0  0  0  0  0
   16.8202   -5.1018   22.7088 N   0  0  0  0  0  0  0  0  0  0  0  0
   14.9034  -12.7443   25.0684 N   0  0  0  0  0  0  0  0  0  0  0  0
   14.6322   -8.0641   26.8464 N   0  0  0  0  0  0  0  0  0  0  0  0
   17.3254   -7.7997   26.6945 O   0  0  0  0  0  0  0  0  0  0  0  0
   18.9609   -9.6971   25.0233 O   0  0  0  0  0  0  0  0  0  0  0  0
   17.8159  -12.3569   24.8190 O   0  0  0  0  0  0  0  0  0  0  0  0
   18.6075   -4.1487   28.4988 O   0  0  0  0  0  0  0  0  0  0  0  0
   18.3664   -6.3420   25.0860 O   0  0  0  0  0  0  0  0  0  0  0  0
  1  5  1  0  0  0  0
  1 18  1  1  0  0  0
  2 18  1  1  0  0  0
  2  3  1  0  0  0  0
  2 12  1  0  0  0  0
  3 19  1  6  0  0  0
  3  4  1  0  0  0  0
  4 20  1  1  0  0  0
  4 10  1  0  0  0  0
  5  6  1  0  0  0  0
  5 14  1  1  0  0  0
  6 21  1  1  0  0  0
  7 13  1  1  0  0  0
  7  6  1  0  0  0  0
  8  9  1  6  0  0  0
  8  7  1  0  0  0  0
 10 16  1  6  0  0  0
 11 10  1  0  0  0  0
 12 17  1  6  0  0  0
 12 11  1  0  0  0  0
 15  9  1  0  0  0  0
 22  8  1  0  0  0  0
 22  1  1  0  0  0  0
M  END
>  <CHROM.1>
-170.55201961,58.65919795,-174.32115922,17.30492104,-7.62003532,25.98866474
-0.97594107,1.12981904,2.72402655

>  <Name>
lig.pdb

>  <RI>
0

>  <Rbt.Current_Directory>
/home/itssahil/PROJECTS/Mol_Feturizer/New_Systems/rnas/5bxk

>  <Rbt.Executable>
rbdock ($Id: //depot/dev/client3/rdock/2013.1/src/exe/rbdock.cxx#4 $)

>  <Rbt.Library>
libRbt.so (2013.1, Build901 2013/11/27)

>  <Rbt.Parameter_File>
/export/apps/rDock/src/rDock_2013.1_src/data/scripts/dock_solv.prm

>  <Rbt.Receptor>
prm/pocket_docking_7.prm

>  <SCORE>
-8.34686

>  <SCORE.INTER>
-4.29133

>  <SCORE.INTER.CONST>
1

>  <SCORE.INTER.POLAR>
0

>  <SCORE.INTER.ROT>
3

>  <SCORE.INTER.SOLV>
15.5481

>  <SCORE.INTER.VDW>
-13.6436

>  <SCORE.INTER.norm>
-0.19506

>  <SCORE.INTRA>
-4.05553

>  <SCORE.INTRA.DIHEDRAL>
-6.50371

>  <SCORE.INTRA.DIHEDRAL.0>
7.18044

>  <SCORE.INTRA.POLAR>
0

>  <SCORE.INTRA.POLAR.0>
0

>  <SCORE.INTRA.REPUL>
0

>  <SCORE.INTRA.REPUL.0>
0

>  <SCORE.INTRA.SOLV>
-1.87829

>  <SCORE.INTRA.SOLV.lig_0>
-72.0615

>  <SCORE.INTRA.VDW>
0.135468

>  <SCORE.INTRA.VDW.0>
-1.54792

>  <SCORE.INTRA.norm>
-0.184342

>  <SCORE.RESTR>
0

>  <SCORE.RESTR.CAVITY>
0

>  <SCORE.RESTR.norm>
0

>  <SCORE.SYSTEM>
0

>  <SCORE.SYSTEM.CONST>
0

>  <SCORE.SYSTEM.DIHEDRAL>
0

>  <SCORE.SYSTEM.SOLV>
0

>  <SCORE.SYSTEM.norm>
0

>  <SCORE.heavy>
22

>  <SCORE.norm>
-0.379403

>  <RMSD>
6.615

$$$$
lig.pdb
 OpenBabel11021811523D
libRbt.so/2013.1/901 2013/11/27
 22 23  0  0  0  0  0  0  0  0999 V2000
   15.8138   -8.7495   26.7304 C   0  0  1  0  0  0  0  0  0  0  0  0
   16.1423  -11.0026   25.6988 C   0  0  1  0  0  0  0  0  0  0  0  0
   14.8192  -11.8433   26.1807 C   0  0  1  0  0  0  0  0  0  0  0  0
   15.1985  -13.4084   26.1408 C   0  0  2  0  0  0  0  0  0  0  0  0
   15.4584   -7.2205   26.4477 C   0  0  1  0  0  0  0  0  0  0  0  0
   16.6767   -6.4861   25.7640 C   0  0  2  0  0  0  0  0  0  0  0  0
   17.9254   -6.5296   26.7745 C   0  0  1  0  0  0  0  0  0  0  0  0
   18.3748   -8.0632   27.0408 C   0  0  1  0  0  0  0  0  0  0  0  0
   19.5878   -8.2022   28.0020 C   0  0  0  0  0  0  0  0  0  0  0  0
   15.5283  -13.7887   24.6148 C   0  0  1  0  0  0  0  0  0  0  0  0
   16.8215  -12.9340   24.1726 C   0  0  0  0  0  0  0  0  0  0  0  0
   16.5148  -11.3775   24.2444 C   0  0  2  0  0  0  0  0  0  0  0  0
   19.0985   -5.8459   26.2195 F   0  0  0  0  0  0  0  0  0  0  0  0
   14.2001   -7.2434   25.5669 N   0  0  0  0  0  0  0  0  0  0  0  0
   19.9807   -9.5391   28.2596 N   0  0  0  0  0  0  0  0  0  0  0  0
   15.9038  -15.2340   24.5074 N   0  0  0  0  0  0  0  0  0  0  0  0
   17.6837  -10.5913   23.8615 N   0  0  0  0  0  0  0  0  0  0  0  0
   15.9165   -9.6115   25.6678 O   0  0  0  0  0  0  0  0  0  0  0  0
   14.5084  -11.4525   27.5903 O   0  0  0  0  0  0  0  0  0  0  0  0
   14.0829  -14.1274   26.5456 O   0  0  0  0  0  0  0  0  0  0  0  0
   16.3625   -5.3661   25.5848 O   0  0  0  0  0  0  0  0  0  0  0  0
   17.1099   -8.8147   27.6009 O   0  0  0  0  0  0  0  0  0  0  0  0
  1  5  1  0  0  0  0
  1 18  1  6  0  0  0
  2 18  1  6  0  0  0
  2  3  1  0  0  0  0
  2 12  1  0  0  0  0
  3 19  1  1  0  0  0
  3  4  1  0  0  0  0
  4 20  1  6  0  0  0
  4 10  1  0  0  0  0
  5  6  1  0  0  0  0
  5 14  1  6  0  0  0
  6 21  1  1  0  0  0
  7 13  1  6  0  0  0
  7  6  1  0  0  0  0
  8  9  1  1  0  0  0
  8  7  1  0  0  0  0
 10 16  1  1  0  0  0
 11 10  1  0  0  0  0
 12 17  1  1  0  0  0
 12 11  1  0  0  0  0
 15  9  1  0  0  0  0
 22  8  1  0  0  0  0
 22  1  1  0  0  0  0
M  END
>  <CHROM.1>
-176.00734833,73.94430939,179.14897205,16.55257860,-9.81988370,26.07803109
1.23213769,-0.23393411,0.09249900

>  <Name>
lig.pdb

>  <RI>
0

>  <Rbt.Current_Directory>
/home/itssahil/PROJECTS/Mol_Feturizer/New_Systems/rnas/5bxk

>  <Rbt.Executable>
rbdock ($Id: //depot/dev/client3/rdock/2013.1/src/exe/rbdock.cxx#4 $)

>  <Rbt.Library>
libRbt.so (2013.1, Build901 2013/11/27)

>  <Rbt.Parameter_File>
/export/apps/rDock/src/rDock_2013.1_src/data/scripts/dock_solv.prm

>  <Rbt.Receptor>
prm/pocket_docking_6.prm

>  <SCORE>
-8.80571

>  <SCORE.INTER>
-5.00901

>  <SCORE.INTER.CONST>
1

>  <SCORE.INTER.POLAR>
0

>  <SCORE.INTER.ROT>
3

>  <SCORE.INTER.SOLV>
21.766

>  <SCORE.INTER.VDW>
-16.1947

>  <SCORE.INTER.norm>
-0.227682

>  <SCORE.INTRA>
-3.7967

>  <SCORE.INTRA.DIHEDRAL>
-6.04947

>  <SCORE.INTRA.DIHEDRAL.0>
7.18044

>  <SCORE.INTRA.POLAR>
0

>  <SCORE.INTRA.POLAR.0>
0

>  <SCORE.INTRA.REPUL>
0

>  <SCORE.INTRA.REPUL.0>
0

>  <SCORE.INTRA.SOLV>
-1.47634

>  <SCORE.INTRA.SOLV.lig_0>
-72.0615

>  <SCORE.INTRA.VDW>
-0.0338003

>  <SCORE.INTRA.VDW.0>
-1.54792

>  <SCORE.INTRA.norm>
-0.172577

>  <SCORE.RESTR>
0

>  <SCORE.RESTR.CAVITY>
0

>  <SCORE.RESTR.norm>
0

>  <SCORE.SYSTEM>
0

>  <SCORE.SYSTEM.CONST>
0

>  <SCORE.SYSTEM.DIHEDRAL>
0

>  <SCORE.SYSTEM.SOLV>
0

>  <SCORE.SYSTEM.norm>
0

>  <SCORE.heavy>
22

>  <SCORE.norm>
-0.40026

>  <RMSD>
6.618

$$$$
lig.pdb
 OpenBabel11021811523D
libRbt.so/2013.1/901 2013/11/27
 22 23  0  0  0  0  0  0  0  0999 V2000
   18.6439   -7.3536   26.5394 C   0  0  1  0  0  0  0  0  0  0  0  0
   16.8824   -9.0500   26.0219 C   0  0  1  0  0  0  0  0  0  0  0  0
   17.8379  -10.3626   25.7907 C   0  0  1  0  0  0  0  0  0  0  0  0
   17.0049  -11.4183   24.9037 C   0  0  2  0  0  0  0  0  0  0  0  0
   19.2926   -6.4635   27.6931 C   0  0  1  0  0  0  0  0  0  0  0  0
   18.3903   -5.2040   27.9943 C   0  0  2  0  0  0  0  0  0  0  0  0
   18.3078   -4.3103   26.6613 C   0  0  1  0  0  0  0  0  0  0  0  0
   17.5891   -5.1451   25.4733 C   0  0  1  0  0  0  0  0  0  0  0  0
   17.4554   -4.3524   24.1435 C   0  0  0  0  0  0  0  0  0  0  0  0
   15.7159  -11.8577   25.7567 C   0  0  1  0  0  0  0  0  0  0  0  0
   14.8106  -10.5422   25.9766 C   0  0  0  0  0  0  0  0  0  0  0  0
   15.6078   -9.4465   26.8047 C   0  0  2  0  0  0  0  0  0  0  0  0
   17.4999   -3.1030   26.8648 F   0  0  0  0  0  0  0  0  0  0  0  0
   19.4422   -7.3980   28.9030 N   0  0  0  0  0  0  0  0  0  0  0  0
   16.7538   -5.0382   23.1209 N   0  0  0  0  0  0  0  0  0  0  0  0
   14.8858  -12.8331   24.9816 N   0  0  0  0  0  0  0  0  0  0  0  0
   14.8043   -8.2429   26.9972 N   0  0  0  0  0  0  0  0  0  0  0  0
   17.5027   -8.0635   26.8152 O   0  0  0  0  0  0  0  0  0  0  0  0
   19.0465   -9.9283   25.0244 O   0  0  0  0  0  0  0  0  0  0  0  0
   17.8061  -12.5336   24.7050 O   0  0  0  0  0  0  0  0  0  0  0  0
   18.9171   -4.5834   28.8444 O   0  0  0  0  0  0  0  0  0  0  0  0
   18.4282   -6.4622   25.2741 O   0  0  0  0  0  0  0  0  0  0  0  0
  1  5  1  0  0  0  0
  1 18  1  1  0  0  0
  2 18  1  1  0  0  0
  2  3  1  0  0  0  0
  2 12  1  0  0  0  0
  3 19  1  6  0  0  0
  3  4  1  0  0  0  0
  4 20  1  1  0  0  0
  4 10  1  0  0  0  0
  5  6  1  0  0  0  0
  5 14  1  1  0  0  0
  6 21  1  1  0  0  0
  7 13  1  1  0  0  0
  7  6  1  0  0  0  0
  8  9  1  6  0  0  0
  8  7  1  0  0  0  0
 10 16  1  6  0  0  0
 11 10  1  0  0  0  0
 12 17  1  6  0  0  0
 12 11  1  0  0  0  0
 15  9  1  0  0  0  0
 22  8  1  0  0  0  0
 22  1  1  0  0  0  0
M  END
>  <CHROM.1>
-169.88342711,62.67696985,-176.21387762,17.41950064,-7.82680310,26.15349324
-1.10529808,0.97405008,2.93963345

>  <Name>
lig.pdb

>  <RI>
0

>  <Rbt.Current_Directory>
/home/itssahil/PROJECTS/Mol_Feturizer/New_Systems/rnas/5bxk

>  <Rbt.Executable>
rbdock ($Id: //depot/dev/client3/rdock/2013.1/src/exe/rbdock.cxx#4 $)

>  <Rbt.Library>
libRbt.so (2013.1, Build901 2013/11/27)

>  <Rbt.Parameter_File>
/export/apps/rDock/src/rDock_2013.1_src/data/scripts/dock_solv.prm

>  <Rbt.Receptor>
prm/pocket_docking_6.prm

>  <SCORE>
-8.273

>  <SCORE.INTER>
-4.24885

>  <SCORE.INTER.CONST>
1

>  <SCORE.INTER.POLAR>
0

>  <SCORE.INTER.ROT>
3

>  <SCORE.INTER.SOLV>
14.6607

>  <SCORE.INTER.VDW>
-13.3195

>  <SCORE.INTER.norm>
-0.19313

>  <SCORE.INTRA>
-4.02414

>  <SCORE.INTRA.DIHEDRAL>
-6.48231

>  <SCORE.INTRA.DIHEDRAL.0>
7.18044

>  <SCORE.INTRA.POLAR>
0

>  <SCORE.INTRA.POLAR.0>
0

>  <SCORE.INTRA.REPUL>
0

>  <SCORE.INTRA.REPUL.0>
0

>  <SCORE.INTRA.SOLV>
-1.79074

>  <SCORE.INTRA.SOLV.lig_0>
-72.0615

>  <SCORE.INTRA.VDW>
0.112381

>  <SCORE.INTRA.VDW.0>
-1.54792

>  <SCORE.INTRA.norm>
-0.182916

>  <SCORE.RESTR>
0

>  <SCORE.RESTR.CAVITY>
0

>  <SCORE.RESTR.norm>
0

>  <SCORE.SYSTEM>
0

>  <SCORE.SYSTEM.CONST>
0

>  <SCORE.SYSTEM.DIHEDRAL>
0

>  <SCORE.SYSTEM.SOLV>
0

>  <SCORE.SYSTEM.norm>
0

>  <SCORE.heavy>
22

>  <SCORE.norm>
-0.376045

>  <RMSD>
6.618

$$$$
lig.pdb
 OpenBabel11021811523D
libRbt.so/2013.1/901 2013/11/27
 22 23  0  0  0  0  0  0  0  0999 V2000
   15.8510   -8.7558   26.7257 C   0  0  1  0  0  0  0  0  0  0  0  0
   16.1633  -11.0150   25.7025 C   0  0  1  0  0  0  0  0  0  0  0  0
   14.8231  -11.8343   26.1735 C   0  0  1  0  0  0  0  0  0  0  0  0
   15.1789  -13.4051   26.1410 C   0  0  2  0  0  0  0  0  0  0  0  0
   15.5097   -7.2249   26.4361 C   0  0  1  0  0  0  0  0  0  0  0  0
   16.7407   -6.5006   25.7641 C   0  0  2  0  0  0  0  0  0  0  0  0
   17.9780   -6.5510   26.7882 C   0  0  1  0  0  0  0  0  0  0  0  0
   18.4134   -8.0872   27.0624 C   0  0  1  0  0  0  0  0  0  0  0  0
   19.6148   -8.2329   28.0370 C   0  0  0  0  0  0  0  0  0  0  0  0
   15.5176  -13.7941   24.6192 C   0  0  1  0  0  0  0  0  0  0  0  0
   16.8278  -12.9603   24.1874 C   0  0  0  0  0  0  0  0  0  0  0  0
   16.5441  -11.3992   24.2526 C   0  0  2  0  0  0  0  0  0  0  0  0
   19.1619   -5.8770   26.2446 F   0  0  0  0  0  0  0  0  0  0  0  0
   14.2609   -7.2405   25.5417 N   0  0  0  0  0  0  0  0  0  0  0  0
   20.0067   -9.5715   28.2876 N   0  0  0  0  0  0  0  0  0  0  0  0
   15.8721  -15.2452   24.5188 N   0  0  0  0  0  0  0  0  0  0  0  0
   17.7285  -10.6317   23.8792 N   0  0  0  0  0  0  0  0  0  0  0  0
   15.9590   -9.6207   25.6660 O   0  0  0  0  0  0  0  0  0  0  0  0
   14.5047  -11.4353   27.5791 O   0  0  0  0  0  0  0  0  0  0  0  0
   14.0486  -14.1061   26.5367 O   0  0  0  0  0  0  0  0  0  0  0  0
   16.4365   -5.3787   25.5793 O   0  0  0  0  0  0  0  0  0  0  0  0
   17.1371   -8.8284   27.6103 O   0  0  0  0  0  0  0  0  0  0  0  0
  1  5  1  0  0  0  0
  1 18  1  6  0  0  0
  2 18  1  6  0  0  0
  2  3  1  0  0  0  0
  2 12  1  0  0  0  0
  3 19  1  1  0  0  0
  3  4  1  0  0  0  0
  4 20  1  6  0  0  0
  4 10  1  0  0  0  0
  5  6  1  0  0  0  0
  5 14  1  6  0  0  0
  6 21  1  1  0  0  0
  7 13  1  6  0  0  0
  7  6  1  0  0  0  0
  8  9  1  1  0  0  0
  8  7  1  0  0  0  0
 10 16  1  1  0  0  0
 11 10  1  0  0  0  0
 12 17  1  1  0  0  0
 12 11  1  0  0  0  0
 15  9  1  0  0  0  0
 22  8  1  0  0  0  0
 22  1  1  0  0  0  0
M  END
>  <CHROM.1>
-175.42987743,73.50693407,179.94527349,16.57889478,-9.83185472,26.08347203
1.22066625,-0.24334229,0.08872327

>  <Name>
lig.pdb

>  <RI>
0

>  <Rbt.Current_Directory>
/home/itssahil/PROJECTS/Mol_Feturizer/New_Systems/rnas/5bxk

>  <Rbt.Executable>
rbdock ($Id: //depot/dev/client3/rdock/2013.1/src/exe/rbdock.cxx#4 $)

>  <Rbt.Library>
libRbt.so (2013.1, Build901 2013/11/27)

>  <Rbt.Parameter_File>
/export/apps/rDock/src/rDock_2013.1_src/data/scripts/dock_solv.prm

>  <Rbt.Receptor>
prm/pocket_docking_4.prm

>  <SCORE>
-8.80304

>  <SCORE.INTER>
-4.98347

>  <SCORE.INTER.CONST>
1

>  <SCORE.INTER.POLAR>
0

>  <SCORE.INTER.ROT>
3

>  <SCORE.INTER.SOLV>
21.7461

>  <SCORE.INTER.VDW>
-16.171

>  <SCORE.INTER.norm>
-0.226521

>  <SCORE.INTRA>
-3.81957

>  <SCORE.INTRA.DIHEDRAL>
-6.0829

>  <SCORE.INTRA.DIHEDRAL.0>
7.18044

>  <SCORE.INTRA.POLAR>
0

>  <SCORE.INTRA.POLAR.0>
0

>  <SCORE.INTRA.REPUL>
0

>  <SCORE.INTRA.REPUL.0>
0

>  <SCORE.INTRA.SOLV>
-1.49751

>  <SCORE.INTRA.SOLV.lig_0>
-72.0615

>  <SCORE.INTRA.VDW>
-0.0293654

>  <SCORE.INTRA.VDW.0>
-1.54792

>  <SCORE.INTRA.norm>
-0.173617

>  <SCORE.RESTR>
0

>  <SCORE.RESTR.CAVITY>
0

>  <SCORE.RESTR.norm>
0

>  <SCORE.SYSTEM>
0

>  <SCORE.SYSTEM.CONST>
0

>  <SCORE.SYSTEM.DIHEDRAL>
0

>  <SCORE.SYSTEM.SOLV>
0

>  <SCORE.SYSTEM.norm>
0

>  <SCORE.heavy>
22

>  <SCORE.norm>
-0.400138

>  <RMSD>
6.619

$$$$
lig.pdb
 OpenBabel11021811523D
libRbt.so/2013.1/901 2013/11/27
 22 23  0  0  0  0  0  0  0  0999 V2000
   15.7826   -8.7331   26.7259 C   0  0  1  0  0  0  0  0  0  0  0  0
   16.1238  -10.9903   25.7073 C   0  0  1  0  0  0  0  0  0  0  0  0
   14.8014  -11.8261   26.1993 C   0  0  1  0  0  0  0  0  0  0  0  0
   15.1786  -13.3919   26.1683 C   0  0  2  0  0  0  0  0  0  0  0  0
   15.4425   -7.2028   26.4319 C   0  0  1  0  0  0  0  0  0  0  0  0
   16.6781   -6.4783   25.7689 C   0  0  2  0  0  0  0  0  0  0  0  0
   17.9074   -6.5266   26.8028 C   0  0  1  0  0  0  0  0  0  0  0  0
   18.3418   -8.0622   27.0821 C   0  0  1  0  0  0  0  0  0  0  0  0
   19.5356   -8.2059   28.0662 C   0  0  0  0  0  0  0  0  0  0  0  0
   15.5027  -13.7826   24.6437 C   0  0  1  0  0  0  0  0  0  0  0  0
   16.7954  -12.9324   24.1913 C   0  0  0  0  0  0  0  0  0  0  0  0
   16.4908  -11.3751   24.2541 C   0  0  2  0  0  0  0  0  0  0  0  0
   19.0950   -5.8522   26.2678 F   0  0  0  0  0  0  0  0  0  0  0  0
   14.2008   -7.2204   25.5277 N   0  0  0  0  0  0  0  0  0  0  0  0
   19.9168   -9.5445   28.3331 N   0  0  0  0  0  0  0  0  0  0  0  0
   15.8760  -15.2290   24.5444 N   0  0  0  0  0  0  0  0  0  0  0  0
   17.6593  -10.5929   23.8620 N   0  0  0  0  0  0  0  0  0  0  0  0
   15.8996   -9.5990   25.6680 O   0  0  0  0  0  0  0  0  0  0  0  0
   14.4961  -11.4257   27.6074 O   0  0  0  0  0  0  0  0  0  0  0  0
   14.0635  -14.1069   26.5817 O   0  0  0  0  0  0  0  0  0  0  0  0
   16.3745   -5.3569   25.5805 O   0  0  0  0  0  0  0  0  0  0  0  0
   17.0618   -8.8038   27.6207 O   0  0  0  0  0  0  0  0  0  0  0  0
  1  5  1  0  0  0  0
  1 18  1  6  0  0  0
  2 18  1  6  0  0  0
  2  3  1  0  0  0  0
  2 12  1  0  0  0  0
  3 19  1  1  0  0  0
  3  4  1  0  0  0  0
  4 20  1  6  0  0  0
  4 10  1  0  0  0  0
  5  6  1  0  0  0  0
  5 14  1  6  0  0  0
  6 21  1  1  0  0  0
  7 13  1  6  0  0  0
  7  6  1  0  0  0  0
  8  9  1  1  0  0  0
  8  7  1  0  0  0  0
 10 16  1  1  0  0  0
 11 10  1  0  0  0  0
 12 17  1  1  0  0  0
 12 11  1  0  0  0  0
 15  9  1  0  0  0  0
 22  8  1  0  0  0  0
 22  1  1  0  0  0  0
M  END
>  <CHROM.1>
-176.42534174,72.92056254,179.27185916,16.53094898,-9.81116207,26.09752353
1.22910932,-0.26840429,0.07997301

>  <Name>
lig.pdb

>  <RI>
0

>  <Rbt.Current_Directory>
/home/itssahil/PROJECTS/Mol_Feturizer/New_Systems/rnas/5bxk

>  <Rbt.Executable>
rbdock ($Id: //depot/dev/client3/rdock/2013.1/src/exe/rbdock.cxx#4 $)

>  <Rbt.Library>
libRbt.so (2013.1, Build901 2013/11/27)

>  <Rbt.Parameter_File>
/export/apps/rDock/src/rDock_2013.1_src/data/scripts/dock_solv.prm

>  <Rbt.Receptor>
prm/pocket_docking_4.prm

>  <SCORE>
-8.80994

>  <SCORE.INTER>
-4.95057

>  <SCORE.INTER.CONST>
1

>  <SCORE.INTER.POLAR>
0

>  <SCORE.INTER.ROT>
3

>  <SCORE.INTER.SOLV>
21.7511

>  <SCORE.INTER.VDW>
-16.1507

>  <SCORE.INTER.norm>
-0.225026

>  <SCORE.INTRA>
-3.85937

>  <SCORE.INTRA.DIHEDRAL>
-6.18986

>  <SCORE.INTRA.DIHEDRAL.0>
7.18044

>  <SCORE.INTRA.POLAR>
0

>  <SCORE.INTRA.POLAR.0>
0

>  <SCORE.INTRA.REPUL>
0

>  <SCORE.INTRA.REPUL.0>
0

>  <SCORE.INTRA.SOLV>
-1.51264

>  <SCORE.INTRA.SOLV.lig_0>
-72.0615

>  <SCORE.INTRA.VDW>
-0.00812159

>  <SCORE.INTRA.VDW.0>
-1.54792

>  <SCORE.INTRA.norm>
-0.175426

>  <SCORE.RESTR>
0

>  <SCORE.RESTR.CAVITY>
0

>  <SCORE.RESTR.norm>
0

>  <SCORE.SYSTEM>
0

>  <SCORE.SYSTEM.CONST>
0

>  <SCORE.SYSTEM.DIHEDRAL>
0

>  <SCORE.SYSTEM.SOLV>
0

>  <SCORE.SYSTEM.norm>
0

>  <SCORE.heavy>
22

>  <SCORE.norm>
-0.400452

>  <RMSD>
6.621

$$$$
lig.pdb
 OpenBabel11021811523D
libRbt.so/2013.1/901 2013/11/27
 22 23  0  0  0  0  0  0  0  0999 V2000
   15.5754  -14.8284   25.1314 C   0  0  1  0  0  0  0  0  0  0  0  0
   16.0537  -12.3997   24.7838 C   0  0  1  0  0  0  0  0  0  0  0  0
   15.5345  -11.8422   26.2360 C   0  0  1  0  0  0  0  0  0  0  0  0
   15.2187  -10.2715   26.0674 C   0  0  2  0  0  0  0  0  0  0  0  0
   16.1516  -16.3084   24.9839 C   0  0  1  0  0  0  0  0  0  0  0  0
   16.3269  -16.6852   23.4613 C   0  0  2  0  0  0  0  0  0  0  0  0
   14.8821  -16.6400   22.7593 C   0  0  1  0  0  0  0  0  0  0  0  0
   14.2801  -15.1370   22.8177 C   0  0  1  0  0  0  0  0  0  0  0  0
   12.8841  -14.9954   22.1500 C   0  0  0  0  0  0  0  0  0  0  0  0
   16.5978   -9.5373   25.6919 C   0  0  1  0  0  0  0  0  0  0  0  0
   17.0841  -10.1203   24.2699 C   0  0  0  0  0  0  0  0  0  0  0  0
   17.3603  -11.6809   24.3700 C   0  0  2  0  0  0  0  0  0  0  0  0
   14.9556  -17.0005   21.3394 F   0  0  0  0  0  0  0  0  0  0  0  0
   17.4767  -16.3168   25.7609 N   0  0  0  0  0  0  0  0  0  0  0  0
   12.8516  -15.3528   20.7791 N   0  0  0  0  0  0  0  0  0  0  0  0
   16.3728   -8.0688   25.5066 N   0  0  0  0  0  0  0  0  0  0  0  0
   17.7861  -12.2249   23.0840 N   0  0  0  0  0  0  0  0  0  0  0  0
   16.3888  -13.7685   24.8192 O   0  0  0  0  0  0  0  0  0  0  0  0
   14.2692  -12.5594   26.5836 O   0  0  0  0  0  0  0  0  0  0  0  0
   14.7803   -9.7913   27.2932 O   0  0  0  0  0  0  0  0  0  0  0  0
   16.7469  -17.7837   23.4122 O   0  0  0  0  0  0  0  0  0  0  0  0
   14.2336  -14.7268   24.3369 O   0  0  0  0  0  0  0  0  0  0  0  0
  1  5  1  0  0  0  0
  1 18  1  6  0  0  0
  2 18  1  1  0  0  0
  2  3  1  0  0  0  0
  2 12  1  0  0  0  0
  3 19  1  6  0  0  0
  3  4  1  0  0  0  0
  4 20  1  1  0  0  0
  4 10  1  0  0  0  0
  5  6  1  0  0  0  0
  5 14  1  1  0  0  0
  6 21  1  1  0  0  0
  7 13  1  6  0  0  0
  7  6  1  0  0  0  0
  8  9  1  1  0  0  0
  8  7  1  0  0  0  0
 10 16  1  6  0  0  0
 11 10  1  0  0  0  0
 12 17  1  6  0  0  0
 12 11  1  0  0  0  0
 15  9  1  0  0  0  0
 22  8  1  0  0  0  0
 22  1  1  0  0  0  0
M  END
>  <CHROM.1>
174.90159493,60.18747338,-59.19482196,15.60067610,-13.60828000,24.32013285
-1.74047758,-0.69729873,0.33366000

>  <Name>
lig.pdb

>  <RI>
0

>  <Rbt.Current_Directory>
/home/itssahil/PROJECTS/Mol_Feturizer/New_Systems/rnas/5bxk

>  <Rbt.Executable>
rbdock ($Id: //depot/dev/client3/rdock/2013.1/src/exe/rbdock.cxx#4 $)

>  <Rbt.Library>
libRbt.so (2013.1, Build901 2013/11/27)

>  <Rbt.Parameter_File>
/export/apps/rDock/src/rDock_2013.1_src/data/scripts/dock_solv.prm

>  <Rbt.Receptor>
prm/pocket_docking_8.prm

>  <SCORE>
-10.1735

>  <SCORE.INTER>
-6.42693

>  <SCORE.INTER.CONST>
1

>  <SCORE.INTER.POLAR>
0

>  <SCORE.INTER.ROT>
3

>  <SCORE.INTER.SOLV>
16.4911

>  <SCORE.INTER.VDW>
-15.3817

>  <SCORE.INTER.norm>
-0.292133

>  <SCORE.INTRA>
-3.74654

>  <SCORE.INTRA.DIHEDRAL>
-6.91958

>  <SCORE.INTRA.DIHEDRAL.0>
7.18044

>  <SCORE.INTRA.POLAR>
0

>  <SCORE.INTRA.POLAR.0>
0

>  <SCORE.INTRA.REPUL>
0

>  <SCORE.INTRA.REPUL.0>
0

>  <SCORE.INTRA.SOLV>
-0.843367

>  <SCORE.INTRA.SOLV.lig_0>
-72.0615

>  <SCORE.INTRA.VDW>
0.134932

>  <SCORE.INTRA.VDW.0>
-1.54792

>  <SCORE.INTRA.norm>
-0.170297

>  <SCORE.RESTR>
0

>  <SCORE.RESTR.CAVITY>
0

>  <SCORE.RESTR.norm>
0

>  <SCORE.SYSTEM>
0

>  <SCORE.SYSTEM.CONST>
0

>  <SCORE.SYSTEM.DIHEDRAL>
0

>  <SCORE.SYSTEM.SOLV>
0

>  <SCORE.SYSTEM.norm>
0

>  <SCORE.heavy>
22

>  <SCORE.norm>
-0.462431

>  <RMSD>
6.623

$$$$
lig.pdb
 OpenBabel11021811523D
libRbt.so/2013.1/901 2013/11/27
 22 23  0  0  0  0  0  0  0  0999 V2000
   15.8771   -8.7981   26.7234 C   0  0  1  0  0  0  0  0  0  0  0  0
   16.1706  -11.0627   25.7064 C   0  0  1  0  0  0  0  0  0  0  0  0
   14.8237  -11.8708   26.1778 C   0  0  1  0  0  0  0  0  0  0  0  0
   15.1680  -13.4443   26.1497 C   0  0  2  0  0  0  0  0  0  0  0  0
   15.5258   -7.2700   26.4315 C   0  0  1  0  0  0  0  0  0  0  0  0
   16.7456   -6.5432   25.7422 C   0  0  2  0  0  0  0  0  0  0  0  0
   17.9950   -6.5838   26.7520 C   0  0  1  0  0  0  0  0  0  0  0  0
   18.4404   -8.1170   27.0273 C   0  0  1  0  0  0  0  0  0  0  0  0
   19.6538   -8.2533   27.9884 C   0  0  0  0  0  0  0  0  0  0  0  0
   15.5058  -13.8397   24.6293 C   0  0  1  0  0  0  0  0  0  0  0  0
   16.8227  -13.0167   24.1971 C   0  0  0  0  0  0  0  0  0  0  0  0
   16.5504  -11.4533   24.2580 C   0  0  2  0  0  0  0  0  0  0  0  0
   19.1695   -5.9069   26.1917 F   0  0  0  0  0  0  0  0  0  0  0  0
   14.2666   -7.2948   25.5519 N   0  0  0  0  0  0  0  0  0  0  0  0
   20.0148   -9.5901   28.2898 N   0  0  0  0  0  0  0  0  0  0  0  0
   15.8497  -15.2936   24.5330 N   0  0  0  0  0  0  0  0  0  0  0  0
   17.7409  -10.6955   23.8842 N   0  0  0  0  0  0  0  0  0  0  0  0
   15.9765   -9.6669   25.6662 O   0  0  0  0  0  0  0  0  0  0  0  0
   14.5065  -11.4660   27.5820 O   0  0  0  0  0  0  0  0  0  0  0  0
   14.0321  -14.1360   26.5457 O   0  0  0  0  0  0  0  0  0  0  0  0
   16.4343   -5.4234   25.5563 O   0  0  0  0  0  0  0  0  0  0  0  0
   17.1738   -8.8614   27.5932 O   0  0  0  0  0  0  0  0  0  0  0  0
  1  5  1  0  0  0  0
  1 18  1  6  0  0  0
  2 18  1  6  0  0  0
  2  3  1  0  0  0  0
  2 12  1  0  0  0  0
  3 19  1  1  0  0  0
  3  4  1  0  0  0  0
  4 20  1  6  0  0  0
  4 10  1  0  0  0  0
  5  6  1  0  0  0  0
  5 14  1  6  0  0  0
  6 21  1  1  0  0  0
  7 13  1  6  0  0  0
  7  6  1  0  0  0  0
  8  9  1  1  0  0  0
  8  7  1  0  0  0  0
 10 16  1  1  0  0  0
 11 10  1  0  0  0  0
 12 17  1  1  0  0  0
 12 11  1  0  0  0  0
 15  9  1  0  0  0  0
 22  8  1  0  0  0  0
 22  1  1  0  0  0  0
M  END
>  <CHROM.1>
-174.54938070,73.69819397,177.11848011,16.58638008,-9.87207801,26.07568966
1.21720373,-0.23097100,0.08698794

>  <Name>
lig.pdb

>  <RI>
0

>  <Rbt.Current_Directory>
/home/itssahil/PROJECTS/Mol_Feturizer/New_Systems/rnas/5bxk

>  <Rbt.Executable>
rbdock ($Id: //depot/dev/client3/rdock/2013.1/src/exe/rbdock.cxx#4 $)

>  <Rbt.Library>
libRbt.so (2013.1, Build901 2013/11/27)

>  <Rbt.Parameter_File>
/export/apps/rDock/src/rDock_2013.1_src/data/scripts/dock_solv.prm

>  <Rbt.Receptor>
prm/pocket_docking_4.prm

>  <SCORE>
-8.75273

>  <SCORE.INTER>
-5.00249

>  <SCORE.INTER.CONST>
1

>  <SCORE.INTER.POLAR>
0

>  <SCORE.INTER.ROT>
3

>  <SCORE.INTER.SOLV>
21.8562

>  <SCORE.INTER.VDW>
-16.2204

>  <SCORE.INTER.norm>
-0.227386

>  <SCORE.INTRA>
-3.75024

>  <SCORE.INTRA.DIHEDRAL>
-5.98852

>  <SCORE.INTRA.DIHEDRAL.0>
7.18044

>  <SCORE.INTRA.POLAR>
0

>  <SCORE.INTRA.POLAR.0>
0

>  <SCORE.INTRA.REPUL>
0

>  <SCORE.INTRA.REPUL.0>
0

>  <SCORE.INTRA.SOLV>
-1.45264

>  <SCORE.INTRA.SOLV.lig_0>
-72.0615

>  <SCORE.INTRA.VDW>
-0.0296589

>  <SCORE.INTRA.VDW.0>
-1.54792

>  <SCORE.INTRA.norm>
-0.170465

>  <SCORE.RESTR>
0

>  <SCORE.RESTR.CAVITY>
0

>  <SCORE.RESTR.norm>
0

>  <SCORE.SYSTEM>
0

>  <SCORE.SYSTEM.CONST>
0

>  <SCORE.SYSTEM.DIHEDRAL>
0

>  <SCORE.SYSTEM.SOLV>
0

>  <SCORE.SYSTEM.norm>
0

>  <SCORE.heavy>
22

>  <SCORE.norm>
-0.397851

>  <RMSD>
6.627

$$$$
lig.pdb
 OpenBabel11021811523D
libRbt.so/2013.1/901 2013/11/27
 22 23  0  0  0  0  0  0  0  0999 V2000
   15.5795   -8.6852   26.9964 C   0  0  1  0  0  0  0  0  0  0  0  0
   16.0447  -10.8475   25.8318 C   0  0  1  0  0  0  0  0  0  0  0  0
   14.7736  -11.7676   26.3085 C   0  0  1  0  0  0  0  0  0  0  0  0
   15.2141  -13.3110   26.1712 C   0  0  2  0  0  0  0  0  0  0  0  0
   15.0943   -7.1780   26.8044 C   0  0  1  0  0  0  0  0  0  0  0  0
   16.2478   -6.3001   26.1799 C   0  0  2  0  0  0  0  0  0  0  0  0
   17.4903   -6.2983   27.1989 C   0  0  1  0  0  0  0  0  0  0  0  0
   18.0697   -7.8010   27.3752 C   0  0  1  0  0  0  0  0  0  0  0  0
   19.2852   -7.8942   28.3388 C   0  0  0  0  0  0  0  0  0  0  0  0
   15.5072  -13.5952   24.6170 C   0  0  1  0  0  0  0  0  0  0  0  0
   16.7492  -12.6645   24.1815 C   0  0  0  0  0  0  0  0  0  0  0  0
   16.3826  -11.1283   24.3480 C   0  0  2  0  0  0  0  0  0  0  0  0
   18.6025   -5.4829   26.6993 F   0  0  0  0  0  0  0  0  0  0  0  0
   13.8473   -7.2546   25.9106 N   0  0  0  0  0  0  0  0  0  0  0  0
   19.8341   -9.1946   28.4650 N   0  0  0  0  0  0  0  0  0  0  0  0
   15.9367  -15.0156   24.4188 N   0  0  0  0  0  0  0  0  0  0  0  0
   17.5052  -10.2743   23.9719 N   0  0  0  0  0  0  0  0  0  0  0  0
   15.7621   -9.4674   25.8841 O   0  0  0  0  0  0  0  0  0  0  0  0
   14.4953  -11.4660   27.7466 O   0  0  0  0  0  0  0  0  0  0  0  0
   14.1427  -14.0969   26.5711 O   0  0  0  0  0  0  0  0  0  0  0  0
   15.8385   -5.2024   26.0665 O   0  0  0  0  0  0  0  0  0  0  0  0
   16.8719   -8.6921   27.8748 O   0  0  0  0  0  0  0  0  0  0  0  0
  1  5  1  0  0  0  0
  1 18  1  6  0  0  0
  2 18  1  6  0  0  0
  2  3  1  0  0  0  0
  2 12  1  0  0  0  0
  3 19  1  1  0  0  0
  3  4  1  0  0  0  0
  4 20  1  6  0  0  0
  4 10  1  0  0  0  0
  5  6  1  0  0  0  0
  5 14  1  6  0  0  0
  6 21  1  1  0  0  0
  7 13  1  6  0  0  0
  7  6  1  0  0  0  0
  8  9  1  1  0  0  0
  8  7  1  0  0  0  0
 10 16  1  1  0  0  0
 11 10  1  0  0  0  0
 12 17  1  1  0  0  0
 12 11  1  0  0  0  0
 15  9  1  0  0  0  0
 22  8  1  0  0  0  0
 22  1  1  0  0  0  0
M  END
>  <CHROM.1>
-172.68214751,69.54955396,-177.78529536,16.34731894,-9.64560340,26.29825257
1.28973438,-0.24651814,0.16088147

>  <Name>
lig.pdb

>  <RI>
0

>  <Rbt.Current_Directory>
/home/itssahil/PROJECTS/Mol_Feturizer/New_Systems/rnas/5bxk

>  <Rbt.Executable>
rbdock ($Id: //depot/dev/client3/rdock/2013.1/src/exe/rbdock.cxx#4 $)

>  <Rbt.Library>
libRbt.so (2013.1, Build901 2013/11/27)

>  <Rbt.Parameter_File>
/export/apps/rDock/src/rDock_2013.1_src/data/scripts/dock_solv.prm

>  <Rbt.Receptor>
prm/pocket_docking_3.prm

>  <SCORE>
-8.54644

>  <SCORE.INTER>
-4.60179

>  <SCORE.INTER.CONST>
1

>  <SCORE.INTER.POLAR>
0

>  <SCORE.INTER.ROT>
3

>  <SCORE.INTER.SOLV>
19.3812

>  <SCORE.INTER.VDW>
-15.1283

>  <SCORE.INTER.norm>
-0.209172

>  <SCORE.INTRA>
-3.94465

>  <SCORE.INTRA.DIHEDRAL>
-6.33482

>  <SCORE.INTRA.DIHEDRAL.0>
7.18044

>  <SCORE.INTRA.POLAR>
0

>  <SCORE.INTRA.POLAR.0>
0

>  <SCORE.INTRA.REPUL>
0

>  <SCORE.INTRA.REPUL.0>
0

>  <SCORE.INTRA.SOLV>
-1.63726

>  <SCORE.INTRA.SOLV.lig_0>
-72.0615

>  <SCORE.INTRA.VDW>
0.0413883

>  <SCORE.INTRA.VDW.0>
-1.54792

>  <SCORE.INTRA.norm>
-0.179302

>  <SCORE.RESTR>
0

>  <SCORE.RESTR.CAVITY>
0

>  <SCORE.RESTR.norm>
0

>  <SCORE.SYSTEM>
0

>  <SCORE.SYSTEM.CONST>
0

>  <SCORE.SYSTEM.DIHEDRAL>
0

>  <SCORE.SYSTEM.SOLV>
0

>  <SCORE.SYSTEM.norm>
0

>  <SCORE.heavy>
22

>  <SCORE.norm>
-0.388475

>  <RMSD>
6.631

$$$$
lig.pdb
 OpenBabel11021811523D
libRbt.so/2013.1/901 2013/11/27
 22 23  0  0  0  0  0  0  0  0999 V2000
   18.5010   -7.4622   26.7142 C   0  0  1  0  0  0  0  0  0  0  0  0
   16.7431   -9.1353   26.1149 C   0  0  1  0  0  0  0  0  0  0  0  0
   17.7420  -10.4002   25.8125 C   0  0  1  0  0  0  0  0  0  0  0  0
   16.9323  -11.4488   24.8960 C   0  0  2  0  0  0  0  0  0  0  0  0
   19.0227   -6.4576   27.8379 C   0  0  1  0  0  0  0  0  0  0  0  0
   18.0876   -5.1889   27.9239 C   0  0  2  0  0  0  0  0  0  0  0  0
   18.1384   -4.4263   26.5103 C   0  0  1  0  0  0  0  0  0  0  0  0
   17.5503   -5.3802   25.3402 C   0  0  1  0  0  0  0  0  0  0  0  0
   17.5502   -4.7186   23.9342 C   0  0  0  0  0  0  0  0  0  0  0  0
   15.6765  -11.9715   25.7514 C   0  0  1  0  0  0  0  0  0  0  0  0
   14.7274  -10.7014   26.0419 C   0  0  0  0  0  0  0  0  0  0  0  0
   15.4987   -9.6117   26.9019 C   0  0  2  0  0  0  0  0  0  0  0  0
   17.3076   -3.2175   26.5141 F   0  0  0  0  0  0  0  0  0  0  0  0
   19.0517   -7.2713   29.1405 N   0  0  0  0  0  0  0  0  0  0  0  0
   16.6880   -3.6005   23.8131 N   0  0  0  0  0  0  0  0  0  0  0  0
   14.8687  -12.9446   24.9500 N   0  0  0  0  0  0  0  0  0  0  0  0
   14.6551   -8.4483   27.1585 N   0  0  0  0  0  0  0  0  0  0  0  0
   17.3411   -8.1599   26.9386 O   0  0  0  0  0  0  0  0  0  0  0  0
   18.9193   -9.8893   25.0448 O   0  0  0  0  0  0  0  0  0  0  0  0
   17.7704  -12.5239   24.6369 O   0  0  0  0  0  0  0  0  0  0  0  0
   18.5208   -4.4831   28.7603 O   0  0  0  0  0  0  0  0  0  0  0  0
   18.4122   -6.6975   25.3543 O   0  0  0  0  0  0  0  0  0  0  0  0
  1  5  1  0  0  0  0
  1 18  1  1  0  0  0
  2 18  1  1  0  0  0
  2  3  1  0  0  0  0
  2 12  1  0  0  0  0
  3 19  1  6  0  0  0
  3  4  1  0  0  0  0
  4 20  1  1  0  0  0
  4 10  1  0  0  0  0
  5  6  1  0  0  0  0
  5 14  1  1  0  0  0
  6 21  1  1  0  0  0
  7 13  1  1  0  0  0
  7  6  1  0  0  0  0
  8  9  1  6  0  0  0
  8  7  1  0  0  0  0
 10 16  1  6  0  0  0
 11 10  1  0  0  0  0
 12 17  1  6  0  0  0
 12 11  1  0  0  0  0
 15  9  1  0  0  0  0
 22  8  1  0  0  0  0
 22  1  1  0  0  0  0
M  END
>  <CHROM.1>
-176.72138874,57.78009627,-65.28473992,17.28554038,-7.84701971,26.18363494
-1.05823662,1.09458756,2.83277200

>  <Name>
lig.pdb

>  <RI>
0

>  <Rbt.Current_Directory>
/home/itssahil/PROJECTS/Mol_Feturizer/New_Systems/rnas/5bxk

>  <Rbt.Executable>
rbdock ($Id: //depot/dev/client3/rdock/2013.1/src/exe/rbdock.cxx#4 $)

>  <Rbt.Library>
libRbt.so (2013.1, Build901 2013/11/27)

>  <Rbt.Parameter_File>
/export/apps/rDock/src/rDock_2013.1_src/data/scripts/dock_solv.prm

>  <Rbt.Receptor>
prm/pocket_docking_6.prm

>  <SCORE>
-8.60549

>  <SCORE.INTER>
-4.83319

>  <SCORE.INTER.CONST>
1

>  <SCORE.INTER.POLAR>
0

>  <SCORE.INTER.ROT>
3

>  <SCORE.INTER.SOLV>
12.7472

>  <SCORE.INTER.VDW>
-13.0712

>  <SCORE.INTER.norm>
-0.21969

>  <SCORE.INTRA>
-3.7723

>  <SCORE.INTRA.DIHEDRAL>
-6.87048

>  <SCORE.INTRA.DIHEDRAL.0>
7.18044

>  <SCORE.INTRA.POLAR>
0

>  <SCORE.INTRA.POLAR.0>
0

>  <SCORE.INTRA.REPUL>
0

>  <SCORE.INTRA.REPUL.0>
0

>  <SCORE.INTRA.SOLV>
-0.963608

>  <SCORE.INTRA.SOLV.lig_0>
-72.0615

>  <SCORE.INTRA.VDW>
0.14474

>  <SCORE.INTRA.VDW.0>
-1.54792

>  <SCORE.INTRA.norm>
-0.171468

>  <SCORE.RESTR>
0

>  <SCORE.RESTR.CAVITY>
0

>  <SCORE.RESTR.norm>
0

>  <SCORE.SYSTEM>
0

>  <SCORE.SYSTEM.CONST>
0

>  <SCORE.SYSTEM.DIHEDRAL>
0

>  <SCORE.SYSTEM.SOLV>
0

>  <SCORE.SYSTEM.norm>
0

>  <SCORE.heavy>
22

>  <SCORE.norm>
-0.391159

>  <RMSD>
6.642

$$$$
lig.pdb
 OpenBabel11021811523D
libRbt.so/2013.1/901 2013/11/27
 22 23  0  0  0  0  0  0  0  0999 V2000
   15.9604   -8.8111   27.1895 C   0  0  1  0  0  0  0  0  0  0  0  0
   16.1828  -10.9634   25.9378 C   0  0  1  0  0  0  0  0  0  0  0  0
   14.8476  -11.7916   26.4076 C   0  0  1  0  0  0  0  0  0  0  0  0
   15.1540  -13.3601   26.2049 C   0  0  2  0  0  0  0  0  0  0  0  0
   15.8496   -7.2255   27.0567 C   0  0  1  0  0  0  0  0  0  0  0  0
   17.2083   -6.6173   26.5320 C   0  0  2  0  0  0  0  0  0  0  0  0
   18.3585   -6.9491   27.6041 C   0  0  1  0  0  0  0  0  0  0  0  0
   18.5627   -8.5517   27.7256 C   0  0  1  0  0  0  0  0  0  0  0  0
   19.6676   -8.9671   28.7360 C   0  0  0  0  0  0  0  0  0  0  0  0
   15.3940  -13.6084   24.6356 C   0  0  1  0  0  0  0  0  0  0  0  0
   16.7018  -12.7687   24.2079 C   0  0  0  0  0  0  0  0  0  0  0  0
   16.4689  -11.2148   24.4379 C   0  0  2  0  0  0  0  0  0  0  0  0
   19.6556   -6.3971   27.1988 F   0  0  0  0  0  0  0  0  0  0  0  0
   14.6707   -6.9705   26.1054 N   0  0  0  0  0  0  0  0  0  0  0  0
   20.9610   -8.4804   28.4224 N   0  0  0  0  0  0  0  0  0  0  0  0
   15.6987  -15.0511   24.3768 N   0  0  0  0  0  0  0  0  0  0  0  0
   17.6526  -10.4438   24.0694 N   0  0  0  0  0  0  0  0  0  0  0  0
   16.0184   -9.5675   26.0462 O   0  0  0  0  0  0  0  0  0  0  0  0
   14.6217  -11.5227   27.8612 O   0  0  0  0  0  0  0  0  0  0  0  0
   14.0277  -14.0684   26.5986 O   0  0  0  0  0  0  0  0  0  0  0  0
   17.0718   -5.4506   26.4592 O   0  0  0  0  0  0  0  0  0  0  0  0
   17.1648   -9.1572   28.1230 O   0  0  0  0  0  0  0  0  0  0  0  0
  1  5  1  0  0  0  0
  1 18  1  6  0  0  0
  2 18  1  6  0  0  0
  2  3  1  0  0  0  0
  2 12  1  0  0  0  0
  3 19  1  1  0  0  0
  3  4  1  0  0  0  0
  4 20  1  6  0  0  0
  4 10  1  0  0  0  0
  5  6  1  0  0  0  0
  5 14  1  6  0  0  0
  6 21  1  1  0  0  0
  7 13  1  6  0  0  0
  7  6  1  0  0  0  0
  8  9  1  1  0  0  0
  8  7  1  0  0  0  0
 10 16  1  1  0  0  0
 11 10  1  0  0  0  0
 12 17  1  1  0  0  0
 12 11  1  0  0  0  0
 15  9  1  0  0  0  0
 22  8  1  0  0  0  0
 22  1  1  0  0  0  0
M  END
>  <CHROM.1>
176.61238568,71.57469963,-60.70480684,16.74986243,-9.85189425,26.48403901
1.12094457,-0.23235881,0.19166773

>  <Name>
lig.pdb

>  <RI>
0

>  <Rbt.Current_Directory>
/home/itssahil/PROJECTS/Mol_Feturizer/New_Systems/rnas/5bxk

>  <Rbt.Executable>
rbdock ($Id: //depot/dev/client3/rdock/2013.1/src/exe/rbdock.cxx#4 $)

>  <Rbt.Library>
libRbt.so (2013.1, Build901 2013/11/27)

>  <Rbt.Parameter_File>
/export/apps/rDock/src/rDock_2013.1_src/data/scripts/dock_solv.prm

>  <Rbt.Receptor>
prm/pocket_docking_3.prm

>  <SCORE>
-9.09896

>  <SCORE.INTER>
-5.6329

>  <SCORE.INTER.CONST>
1

>  <SCORE.INTER.POLAR>
0

>  <SCORE.INTER.ROT>
3

>  <SCORE.INTER.SOLV>
18.4517

>  <SCORE.INTER.VDW>
-15.5058

>  <SCORE.INTER.norm>
-0.256041

>  <SCORE.INTRA>
-3.46606

>  <SCORE.INTRA.DIHEDRAL>
-6.34786

>  <SCORE.INTRA.DIHEDRAL.0>
7.18044

>  <SCORE.INTRA.POLAR>
0

>  <SCORE.INTRA.POLAR.0>
0

>  <SCORE.INTRA.REPUL>
0

>  <SCORE.INTRA.REPUL.0>
0

>  <SCORE.INTRA.SOLV>
-0.643822

>  <SCORE.INTRA.SOLV.lig_0>
-72.0615

>  <SCORE.INTRA.VDW>
0.0297779

>  <SCORE.INTRA.VDW.0>
-1.54792

>  <SCORE.INTRA.norm>
-0.157548

>  <SCORE.RESTR>
0

>  <SCORE.RESTR.CAVITY>
0

>  <SCORE.RESTR.norm>
0

>  <SCORE.SYSTEM>
0

>  <SCORE.SYSTEM.CONST>
0

>  <SCORE.SYSTEM.DIHEDRAL>
0

>  <SCORE.SYSTEM.SOLV>
0

>  <SCORE.SYSTEM.norm>
0

>  <SCORE.heavy>
22

>  <SCORE.norm>
-0.413589

>  <RMSD>
6.643

$$$$
lig.pdb
 OpenBabel11021811523D
libRbt.so/2013.1/901 2013/11/27
 22 23  0  0  0  0  0  0  0  0999 V2000
   15.9326   -8.8028   27.1931 C   0  0  1  0  0  0  0  0  0  0  0  0
   16.2115  -10.9375   25.9228 C   0  0  1  0  0  0  0  0  0  0  0  0
   14.8818  -11.7770   26.3879 C   0  0  1  0  0  0  0  0  0  0  0  0
   15.1965  -13.3420   26.1716 C   0  0  2  0  0  0  0  0  0  0  0  0
   15.8652   -7.2132   27.0795 C   0  0  1  0  0  0  0  0  0  0  0  0
   17.2653   -6.6293   26.6436 C   0  0  2  0  0  0  0  0  0  0  0  0
   18.3437   -7.0035   27.7747 C   0  0  1  0  0  0  0  0  0  0  0  0
   18.5046   -8.6121   27.8821 C   0  0  1  0  0  0  0  0  0  0  0  0
   19.5396   -9.0679   28.9477 C   0  0  0  0  0  0  0  0  0  0  0  0
   15.4352  -13.5759   24.5999 C   0  0  1  0  0  0  0  0  0  0  0  0
   16.7377  -12.7255   24.1770 C   0  0  0  0  0  0  0  0  0  0  0  0
   16.4965  -11.1748   24.4204 C   0  0  2  0  0  0  0  0  0  0  0  0
   19.6742   -6.4760   27.4536 F   0  0  0  0  0  0  0  0  0  0  0  0
   14.7493   -6.9169   26.0662 N   0  0  0  0  0  0  0  0  0  0  0  0
   20.8532   -8.5811   28.7341 N   0  0  0  0  0  0  0  0  0  0  0  0
   15.7475  -15.0147   24.3286 N   0  0  0  0  0  0  0  0  0  0  0  0
   17.6752  -10.3942   24.0564 N   0  0  0  0  0  0  0  0  0  0  0  0
   16.0396   -9.5435   26.0431 O   0  0  0  0  0  0  0  0  0  0  0  0
   14.6569  -11.5215   27.8441 O   0  0  0  0  0  0  0  0  0  0  0  0
   14.0748  -14.0599   26.5613 O   0  0  0  0  0  0  0  0  0  0  0  0
   17.1594   -5.4587   26.5818 O   0  0  0  0  0  0  0  0  0  0  0  0
   17.0728   -9.1905   28.1887 O   0  0  0  0  0  0  0  0  0  0  0  0
  1  5  1  0  0  0  0
  1 18  1  6  0  0  0
  2 18  1  6  0  0  0
  2  3  1  0  0  0  0
  2 12  1  0  0  0  0
  3 19  1  1  0  0  0
  3  4  1  0  0  0  0
  4 20  1  6  0  0  0
  4 10  1  0  0  0  0
  5  6  1  0  0  0  0
  5 14  1  6  0  0  0
  6 21  1  1  0  0  0
  7 13  1  6  0  0  0
  7  6  1  0  0  0  0
  8  9  1  1  0  0  0
  8  7  1  0  0  0  0
 10 16  1  1  0  0  0
 11 10  1  0  0  0  0
 12 17  1  1  0  0  0
 12 11  1  0  0  0  0
 15  9  1  0  0  0  0
 22  8  1  0  0  0  0
 22  1  1  0  0  0  0
M  END
>  <CHROM.1>
174.90525061,69.07533615,-59.29802848,16.75989170,-9.85687203,26.53801186
1.11289698,-0.35556923,0.16652655

>  <Name>
lig.pdb

>  <RI>
0

>  <Rbt.Current_Directory>
/home/itssahil/PROJECTS/Mol_Feturizer/New_Systems/rnas/5bxk

>  <Rbt.Executable>
rbdock ($Id: //depot/dev/client3/rdock/2013.1/src/exe/rbdock.cxx#4 $)

>  <Rbt.Library>
libRbt.so (2013.1, Build901 2013/11/27)

>  <Rbt.Parameter_File>
/export/apps/rDock/src/rDock_2013.1_src/data/scripts/dock_solv.prm

>  <Rbt.Receptor>
prm/pocket_docking_3.prm

>  <SCORE>
-9.04747

>  <SCORE.INTER>
-5.51434

>  <SCORE.INTER.CONST>
1

>  <SCORE.INTER.POLAR>
0

>  <SCORE.INTER.ROT>
3

>  <SCORE.INTER.SOLV>
17.7757

>  <SCORE.INTER.VDW>
-15.2015

>  <SCORE.INTER.norm>
-0.250652

>  <SCORE.INTRA>
-3.53313

>  <SCORE.INTRA.DIHEDRAL>
-6.52167

>  <SCORE.INTRA.DIHEDRAL.0>
7.18044

>  <SCORE.INTRA.POLAR>
0

>  <SCORE.INTRA.POLAR.0>
0

>  <SCORE.INTRA.REPUL>
0

>  <SCORE.INTRA.REPUL.0>
0

>  <SCORE.INTRA.SOLV>
-0.697187

>  <SCORE.INTRA.SOLV.lig_0>
-72.0615

>  <SCORE.INTRA.VDW>
0.0762997

>  <SCORE.INTRA.VDW.0>
-1.54792

>  <SCORE.INTRA.norm>
-0.160597

>  <SCORE.RESTR>
0

>  <SCORE.RESTR.CAVITY>
0

>  <SCORE.RESTR.norm>
0

>  <SCORE.SYSTEM>
0

>  <SCORE.SYSTEM.CONST>
0

>  <SCORE.SYSTEM.DIHEDRAL>
0

>  <SCORE.SYSTEM.SOLV>
0

>  <SCORE.SYSTEM.norm>
0

>  <SCORE.heavy>
22

>  <SCORE.norm>
-0.411249

>  <RMSD>
6.644

$$$$
lig.pdb
 OpenBabel11021811523D
libRbt.so/2013.1/901 2013/11/27
 22 23  0  0  0  0  0  0  0  0999 V2000
   18.4835   -7.0913   26.5834 C   0  0  1  0  0  0  0  0  0  0  0  0
   16.7490   -8.8125   26.0566 C   0  0  1  0  0  0  0  0  0  0  0  0
   17.7690  -10.0795   25.8477 C   0  0  1  0  0  0  0  0  0  0  0  0
   16.9870  -11.1943   24.9870 C   0  0  2  0  0  0  0  0  0  0  0  0
   18.9493   -5.9782   27.6266 C   0  0  1  0  0  0  0  0  0  0  0  0
   18.0002   -4.7192   27.5538 C   0  0  2  0  0  0  0  0  0  0  0  0
   18.1026   -4.0932   26.0772 C   0  0  1  0  0  0  0  0  0  0  0  0
   17.5719   -5.1610   24.9804 C   0  0  1  0  0  0  0  0  0  0  0  0
   17.6241   -4.6356   23.5190 C   0  0  0  0  0  0  0  0  0  0  0  0
   15.7255  -11.6806   25.8555 C   0  0  1  0  0  0  0  0  0  0  0  0
   14.7554  -10.4084   26.0528 C   0  0  0  0  0  0  0  0  0  0  0  0
   15.4993   -9.2566   26.8540 C   0  0  2  0  0  0  0  0  0  0  0  0
   17.2616   -2.9002   25.9326 F   0  0  0  0  0  0  0  0  0  0  0  0
   18.9317   -6.6646   29.0007 N   0  0  0  0  0  0  0  0  0  0  0  0
   16.8047   -3.5058   23.2732 N   0  0  0  0  0  0  0  0  0  0  0  0
   14.9429  -12.7129   25.1050 N   0  0  0  0  0  0  0  0  0  0  0  0
   14.6366   -8.0915   27.0256 N   0  0  0  0  0  0  0  0  0  0  0  0
   17.3216   -7.7794   26.8262 O   0  0  0  0  0  0  0  0  0  0  0  0
   18.9508   -9.6006   25.0665 O   0  0  0  0  0  0  0  0  0  0  0  0
   17.8431  -12.2715   24.8073 O   0  0  0  0  0  0  0  0  0  0  0  0
   18.3921   -3.9319   28.3360 O   0  0  0  0  0  0  0  0  0  0  0  0
   18.4442   -6.4600   25.1545 O   0  0  0  0  0  0  0  0  0  0  0  0
  1  5  1  0  0  0  0
  1 18  1  1  0  0  0
  2 18  1  1  0  0  0
  2  3  1  0  0  0  0
  2 12  1  0  0  0  0
  3 19  1  6  0  0  0
  3  4  1  0  0  0  0
  4 20  1  1  0  0  0
  4 10  1  0  0  0  0
  5  6  1  0  0  0  0
  5 14  1  1  0  0  0
  6 21  1  1  0  0  0
  7 13  1  1  0  0  0
  7  6  1  0  0  0  0
  8  9  1  6  0  0  0
  8  7  1  0  0  0  0
 10 16  1  6  0  0  0
 11 10  1  0  0  0  0
 12 17  1  6  0  0  0
 12 11  1  0  0  0  0
 15  9  1  0  0  0  0
 22  8  1  0  0  0  0
 22  1  1  0  0  0  0
M  END
>  <CHROM.1>
-178.53217052,56.94921398,-62.47755546,17.28674008,-7.52393388,26.01566260
-0.94634838,1.19108495,2.63501991

>  <Name>
lig.pdb

>  <RI>
0

>  <Rbt.Current_Directory>
/home/itssahil/PROJECTS/Mol_Feturizer/New_Systems/rnas/5bxk

>  <Rbt.Executable>
rbdock ($Id: //depot/dev/client3/rdock/2013.1/src/exe/rbdock.cxx#4 $)

>  <Rbt.Library>
libRbt.so (2013.1, Build901 2013/11/27)

>  <Rbt.Parameter_File>
/export/apps/rDock/src/rDock_2013.1_src/data/scripts/dock_solv.prm

>  <Rbt.Receptor>
prm/pocket_docking_5.prm

>  <SCORE>
-8.73375

>  <SCORE.INTER>
-4.94107

>  <SCORE.INTER.CONST>
1

>  <SCORE.INTER.POLAR>
0

>  <SCORE.INTER.ROT>
3

>  <SCORE.INTER.SOLV>
12.9667

>  <SCORE.INTER.VDW>
-13.2163

>  <SCORE.INTER.norm>
-0.224594

>  <SCORE.INTRA>
-3.79268

>  <SCORE.INTRA.DIHEDRAL>
-6.9673

>  <SCORE.INTRA.DIHEDRAL.0>
7.18044

>  <SCORE.INTRA.POLAR>
0

>  <SCORE.INTRA.POLAR.0>
0

>  <SCORE.INTRA.REPUL>
0

>  <SCORE.INTRA.REPUL.0>
0

>  <SCORE.INTRA.SOLV>
-0.921512

>  <SCORE.INTRA.SOLV.lig_0>
-72.0615

>  <SCORE.INTRA.VDW>
0.151722

>  <SCORE.INTRA.VDW.0>
-1.54792

>  <SCORE.INTRA.norm>
-0.172395

>  <SCORE.RESTR>
0

>  <SCORE.RESTR.CAVITY>
0

>  <SCORE.RESTR.norm>
0

>  <SCORE.SYSTEM>
0

>  <SCORE.SYSTEM.CONST>
0

>  <SCORE.SYSTEM.DIHEDRAL>
0

>  <SCORE.SYSTEM.SOLV>
0

>  <SCORE.SYSTEM.norm>
0

>  <SCORE.heavy>
22

>  <SCORE.norm>
-0.396989

>  <RMSD>
6.645

$$$$
lig.pdb
 OpenBabel11021811523D
libRbt.so/2013.1/901 2013/11/27
 22 23  0  0  0  0  0  0  0  0999 V2000
   18.4503   -7.1233   26.5595 C   0  0  1  0  0  0  0  0  0  0  0  0
   16.7053   -8.8417   26.0589 C   0  0  1  0  0  0  0  0  0  0  0  0
   17.7310  -10.1039   25.8492 C   0  0  1  0  0  0  0  0  0  0  0  0
   16.9449  -11.2331   25.0113 C   0  0  2  0  0  0  0  0  0  0  0  0
   18.9359   -6.0152   27.5989 C   0  0  1  0  0  0  0  0  0  0  0  0
   18.0022   -4.7444   27.5303 C   0  0  2  0  0  0  0  0  0  0  0  0
   18.1038   -4.1212   26.0526 C   0  0  1  0  0  0  0  0  0  0  0  0
   17.5536   -5.1833   24.9598 C   0  0  1  0  0  0  0  0  0  0  0  0
   17.6039   -4.6598   23.4977 C   0  0  0  0  0  0  0  0  0  0  0  0
   15.6989  -11.7186   25.9023 C   0  0  1  0  0  0  0  0  0  0  0  0
   14.7229  -10.4510   26.0997 C   0  0  0  0  0  0  0  0  0  0  0  0
   15.4698   -9.2857   26.8783 C   0  0  2  0  0  0  0  0  0  0  0  0
   17.2770   -2.9179   25.9116 F   0  0  0  0  0  0  0  0  0  0  0  0
   18.9176   -6.7000   28.9738 N   0  0  0  0  0  0  0  0  0  0  0  0
   16.7993   -3.5186   23.2561 N   0  0  0  0  0  0  0  0  0  0  0  0
   14.9131  -12.7640   25.1737 N   0  0  0  0  0  0  0  0  0  0  0  0
   14.6015   -8.1247   27.0496 N   0  0  0  0  0  0  0  0  0  0  0  0
   17.2813   -7.7967   26.8096 O   0  0  0  0  0  0  0  0  0  0  0  0
   18.8985   -9.6254   25.0466 O   0  0  0  0  0  0  0  0  0  0  0  0
   17.8058  -12.3063   24.8310 O   0  0  0  0  0  0  0  0  0  0  0  0
   18.4084   -3.9614   28.3095 O   0  0  0  0  0  0  0  0  0  0  0  0
   18.4107   -6.4928   25.1302 O   0  0  0  0  0  0  0  0  0  0  0  0
  1  5  1  0  0  0  0
  1 18  1  1  0  0  0
  2 18  1  1  0  0  0
  2  3  1  0  0  0  0
  2 12  1  0  0  0  0
  3 19  1  6  0  0  0
  3  4  1  0  0  0  0
  4 20  1  1  0  0  0
  4 10  1  0  0  0  0
  5  6  1  0  0  0  0
  5 14  1  1  0  0  0
  6 21  1  1  0  0  0
  7 13  1  1  0  0  0
  7  6  1  0  0  0  0
  8  9  1  6  0  0  0
  8  7  1  0  0  0  0
 10 16  1  6  0  0  0
 11 10  1  0  0  0  0
 12 17  1  6  0  0  0
 12 11  1  0  0  0  0
 15  9  1  0  0  0  0
 22  8  1  0  0  0  0
 22  1  1  0  0  0  0
M  END
>  <CHROM.1>
-177.12482879,55.36876313,-62.36105532,17.26398650,-7.55366622,26.01358686
-0.91183755,1.20097745,2.58892248

>  <Name>
lig.pdb

>  <RI>
0

>  <Rbt.Current_Directory>
/home/itssahil/PROJECTS/Mol_Feturizer/New_Systems/rnas/5bxk

>  <Rbt.Executable>
rbdock ($Id: //depot/dev/client3/rdock/2013.1/src/exe/rbdock.cxx#4 $)

>  <Rbt.Library>
libRbt.so (2013.1, Build901 2013/11/27)

>  <Rbt.Parameter_File>
/export/apps/rDock/src/rDock_2013.1_src/data/scripts/dock_solv.prm

>  <Rbt.Receptor>
prm/pocket_docking_8.prm

>  <SCORE>
-8.65699

>  <SCORE.INTER>
-4.91442

>  <SCORE.INTER.CONST>
1

>  <SCORE.INTER.POLAR>
0

>  <SCORE.INTER.ROT>
3

>  <SCORE.INTER.SOLV>
12.9345

>  <SCORE.INTER.VDW>
-13.1878

>  <SCORE.INTER.norm>
-0.223383

>  <SCORE.INTRA>
-3.74256

>  <SCORE.INTRA.DIHEDRAL>
-6.88085

>  <SCORE.INTRA.DIHEDRAL.0>
7.18044

>  <SCORE.INTRA.POLAR>
0

>  <SCORE.INTRA.POLAR.0>
0

>  <SCORE.INTRA.REPUL>
0

>  <SCORE.INTRA.REPUL.0>
0

>  <SCORE.INTRA.SOLV>
-0.915337

>  <SCORE.INTRA.SOLV.lig_0>
-72.0615

>  <SCORE.INTRA.VDW>
0.155527

>  <SCORE.INTRA.VDW.0>
-1.54792

>  <SCORE.INTRA.norm>
-0.170117

>  <SCORE.RESTR>
0

>  <SCORE.RESTR.CAVITY>
0

>  <SCORE.RESTR.norm>
0

>  <SCORE.SYSTEM>
0

>  <SCORE.SYSTEM.CONST>
0

>  <SCORE.SYSTEM.DIHEDRAL>
0

>  <SCORE.SYSTEM.SOLV>
0

>  <SCORE.SYSTEM.norm>
0

>  <SCORE.heavy>
22

>  <SCORE.norm>
-0.393499

>  <RMSD>
6.645

$$$$
lig.pdb
 OpenBabel11021811523D
libRbt.so/2013.1/901 2013/11/27
 22 23  0  0  0  0  0  0  0  0999 V2000
   18.4742   -7.0973   26.5728 C   0  0  1  0  0  0  0  0  0  0  0  0
   16.7433   -8.8236   26.0505 C   0  0  1  0  0  0  0  0  0  0  0  0
   17.7606  -10.0960   25.8623 C   0  0  1  0  0  0  0  0  0  0  0  0
   16.9825  -11.2157   25.0045 C   0  0  2  0  0  0  0  0  0  0  0  0
   18.9403   -5.9841   27.6156 C   0  0  1  0  0  0  0  0  0  0  0  0
   17.9909   -4.7252   27.5430 C   0  0  2  0  0  0  0  0  0  0  0  0
   18.0924   -4.0994   26.0664 C   0  0  1  0  0  0  0  0  0  0  0  0
   17.5615   -5.1675   24.9699 C   0  0  1  0  0  0  0  0  0  0  0  0
   17.6129   -4.6422   23.5085 C   0  0  0  0  0  0  0  0  0  0  0  0
   15.7114  -11.6898   25.8656 C   0  0  1  0  0  0  0  0  0  0  0  0
   14.7441  -10.4125   26.0427 C   0  0  0  0  0  0  0  0  0  0  0  0
   15.4848   -9.2561   26.8403 C   0  0  2  0  0  0  0  0  0  0  0  0
   17.2512   -2.9066   25.9220 F   0  0  0  0  0  0  0  0  0  0  0  0
   18.9234   -6.6703   28.9898 N   0  0  0  0  0  0  0  0  0  0  0  0
   16.7806   -3.5228   23.2588 N   0  0  0  0  0  0  0  0  0  0  0  0
   14.9319  -12.7260   25.1172 N   0  0  0  0  0  0  0  0  0  0  0  0
   14.6247   -8.0865   26.9936 N   0  0  0  0  0  0  0  0  0  0  0  0
   17.3125   -7.7857   26.8161 O   0  0  0  0  0  0  0  0  0  0  0  0
   18.9512   -9.6283   25.0877 O   0  0  0  0  0  0  0  0  0  0  0  0
   17.8363  -12.2974   24.8422 O   0  0  0  0  0  0  0  0  0  0  0  0
   18.3830   -3.9378   28.3250 O   0  0  0  0  0  0  0  0  0  0  0  0
   18.4341   -6.4662   25.1438 O   0  0  0  0  0  0  0  0  0  0  0  0
  1  5  1  0  0  0  0
  1 18  1  1  0  0  0
  2 18  1  1  0  0  0
  2  3  1  0  0  0  0
  2 12  1  0  0  0  0
  3 19  1  6  0  0  0
  3  4  1  0  0  0  0
  4 20  1  1  0  0  0
  4 10  1  0  0  0  0
  5  6  1  0  0  0  0
  5 14  1  1  0  0  0
  6 21  1  1  0  0  0
  7 13  1  1  0  0  0
  7  6  1  0  0  0  0
  8  9  1  6  0  0  0
  8  7  1  0  0  0  0
 10 16  1  6  0  0  0
 11 10  1  0  0  0  0
 12 17  1  6  0  0  0
 12 11  1  0  0  0  0
 15  9  1  0  0  0  0
 22  8  1  0  0  0  0
 22  1  1  0  0  0  0
M  END
>  <CHROM.1>
-178.17938528,57.45814069,-63.21876081,17.27689817,-7.53353180,26.01203233
-0.98330054,1.17128442,2.67103590

>  <Name>
lig.pdb

>  <RI>
0

>  <Rbt.Current_Directory>
/home/itssahil/PROJECTS/Mol_Feturizer/New_Systems/rnas/5bxk

>  <Rbt.Executable>
rbdock ($Id: //depot/dev/client3/rdock/2013.1/src/exe/rbdock.cxx#4 $)

>  <Rbt.Library>
libRbt.so (2013.1, Build901 2013/11/27)

>  <Rbt.Parameter_File>
/export/apps/rDock/src/rDock_2013.1_src/data/scripts/dock_solv.prm

>  <Rbt.Receptor>
prm/pocket_docking_6.prm

>  <SCORE>
-8.7694

>  <SCORE.INTER>
-4.96275

>  <SCORE.INTER.CONST>
1

>  <SCORE.INTER.POLAR>
0

>  <SCORE.INTER.ROT>
3

>  <SCORE.INTER.SOLV>
12.9966

>  <SCORE.INTER.VDW>
-13.2407

>  <SCORE.INTER.norm>
-0.22558

>  <SCORE.INTRA>
-3.80664

>  <SCORE.INTRA.DIHEDRAL>
-6.96072

>  <SCORE.INTRA.DIHEDRAL.0>
7.18044

>  <SCORE.INTRA.POLAR>
0

>  <SCORE.INTRA.POLAR.0>
0

>  <SCORE.INTRA.REPUL>
0

>  <SCORE.INTRA.REPUL.0>
0

>  <SCORE.INTRA.SOLV>
-0.934808

>  <SCORE.INTRA.SOLV.lig_0>
-72.0615

>  <SCORE.INTRA.VDW>
0.141123

>  <SCORE.INTRA.VDW.0>
-1.54792

>  <SCORE.INTRA.norm>
-0.173029

>  <SCORE.RESTR>
0

>  <SCORE.RESTR.CAVITY>
0

>  <SCORE.RESTR.norm>
0

>  <SCORE.SYSTEM>
0

>  <SCORE.SYSTEM.CONST>
0

>  <SCORE.SYSTEM.DIHEDRAL>
0

>  <SCORE.SYSTEM.SOLV>
0

>  <SCORE.SYSTEM.norm>
0

>  <SCORE.heavy>
22

>  <SCORE.norm>
-0.398609

>  <RMSD>
6.646

$$$$
lig.pdb
 OpenBabel11021811523D
libRbt.so/2013.1/901 2013/11/27
 22 23  0  0  0  0  0  0  0  0999 V2000
   15.1930   -8.0916   26.2771 C   0  0  1  0  0  0  0  0  0  0  0  0
   15.8229  -10.4595   25.7825 C   0  0  1  0  0  0  0  0  0  0  0  0
   15.0521  -11.8764   25.4868 C   0  0  1  0  0  0  0  0  0  0  0  0
   16.1711  -13.0338   25.4281 C   0  0  2  0  0  0  0  0  0  0  0  0
   15.2834   -7.8361   27.8489 C   0  0  1  0  0  0  0  0  0  0  0  0
   13.8564   -7.9567   28.5125 C   0  0  2  0  0  0  0  0  0  0  0  0
   12.9059   -6.8274   27.8772 C   0  0  1  0  0  0  0  0  0  0  0  0
   12.7216   -7.0825   26.2879 C   0  0  1  0  0  0  0  0  0  0  0  0
   11.8049   -6.0406   25.5889 C   0  0  0  0  0  0  0  0  0  0  0  0
   17.1449  -12.7045   24.1930 C   0  0  1  0  0  0  0  0  0  0  0  0
   17.8716  -11.3013   24.5114 C   0  0  0  0  0  0  0  0  0  0  0  0
   16.8032  -10.1324   24.6306 C   0  0  2  0  0  0  0  0  0  0  0  0
   11.5599   -6.8587   28.4593 F   0  0  0  0  0  0  0  0  0  0  0  0
   16.2826   -8.8744   28.3809 N   0  0  0  0  0  0  0  0  0  0  0  0
   12.2728   -4.7051   25.6639 N   0  0  0  0  0  0  0  0  0  0  0  0
   18.2221  -13.7390   24.0885 N   0  0  0  0  0  0  0  0  0  0  0  0
   17.4473   -8.8582   24.9350 N   0  0  0  0  0  0  0  0  0  0  0  0
   14.9384   -9.3628   25.8278 O   0  0  0  0  0  0  0  0  0  0  0  0
   14.1274  -12.1497   26.6299 O   0  0  0  0  0  0  0  0  0  0  0  0
   15.5269  -14.2367   25.1761 O   0  0  0  0  0  0  0  0  0  0  0  0
   13.9813   -7.7541   29.6652 O   0  0  0  0  0  0  0  0  0  0  0  0
   14.1653   -7.0890   25.6602 O   0  0  0  0  0  0  0  0  0  0  0  0
  1  5  1  0  0  0  0
  1 18  1  1  0  0  0
  2 18  1  6  0  0  0
  2  3  1  0  0  0  0
  2 12  1  0  0  0  0
  3 19  1  1  0  0  0
  3  4  1  0  0  0  0
  4 20  1  6  0  0  0
  4 10  1  0  0  0  0
  5  6  1  0  0  0  0
  5 14  1  1  0  0  0
  6 21  1  1  0  0  0
  7 13  1  1  0  0  0
  7  6  1  0  0  0  0
  8  9  1  6  0  0  0
  8  7  1  0  0  0  0
 10 16  1  1  0  0  0
 11 10  1  0  0  0  0
 12 17  1  1  0  0  0
 12 11  1  0  0  0  0
 15  9  1  0  0  0  0
 22  8  1  0  0  0  0
 22  1  1  0  0  0  0
M  END
>  <CHROM.1>
-75.30194968,167.50926962,60.97653160,14.88998367,-9.38358806,26.27016898
-2.53927253,-0.89029565,2.68277953

>  <Name>
lig.pdb

>  <RI>
0

>  <Rbt.Current_Directory>
/home/itssahil/PROJECTS/Mol_Feturizer/New_Systems/rnas/5bxk

>  <Rbt.Executable>
rbdock ($Id: //depot/dev/client3/rdock/2013.1/src/exe/rbdock.cxx#4 $)

>  <Rbt.Library>
libRbt.so (2013.1, Build901 2013/11/27)

>  <Rbt.Parameter_File>
/export/apps/rDock/src/rDock_2013.1_src/data/scripts/dock_solv.prm

>  <Rbt.Receptor>
prm/pocket_docking_5.prm

>  <SCORE>
-8.36705

>  <SCORE.INTER>
-7.69383

>  <SCORE.INTER.CONST>
1

>  <SCORE.INTER.POLAR>
0

>  <SCORE.INTER.ROT>
3

>  <SCORE.INTER.SOLV>
13.0865

>  <SCORE.INTER.VDW>
-15.0914

>  <SCORE.INTER.norm>
-0.349719

>  <SCORE.INTRA>
-0.673229

>  <SCORE.INTRA.DIHEDRAL>
-5.24441

>  <SCORE.INTRA.DIHEDRAL.0>
7.18044

>  <SCORE.INTRA.POLAR>
0

>  <SCORE.INTRA.POLAR.0>
0

>  <SCORE.INTRA.REPUL>
0

>  <SCORE.INTRA.REPUL.0>
0

>  <SCORE.INTRA.SOLV>
2.66477

>  <SCORE.INTRA.SOLV.lig_0>
-72.0615

>  <SCORE.INTRA.VDW>
0.616592

>  <SCORE.INTRA.VDW.0>
-1.54792

>  <SCORE.INTRA.norm>
-0.0306013

>  <SCORE.RESTR>
0

>  <SCORE.RESTR.CAVITY>
0

>  <SCORE.RESTR.norm>
0

>  <SCORE.SYSTEM>
0

>  <SCORE.SYSTEM.CONST>
0

>  <SCORE.SYSTEM.DIHEDRAL>
0

>  <SCORE.SYSTEM.SOLV>
0

>  <SCORE.SYSTEM.norm>
0

>  <SCORE.heavy>
22

>  <SCORE.norm>
-0.380321

>  <RMSD>
6.651

$$$$
lig.pdb
 OpenBabel11021811523D
libRbt.so/2013.1/901 2013/11/27
 22 23  0  0  0  0  0  0  0  0999 V2000
   17.6933  -12.3994   23.9363 C   0  0  1  0  0  0  0  0  0  0  0  0
   19.7159  -13.8597   24.0946 C   0  0  1  0  0  0  0  0  0  0  0  0
   20.6862  -13.2071   22.9449 C   0  0  1  0  0  0  0  0  0  0  0  0
   21.7311  -14.3454   22.4893 C   0  0  2  0  0  0  0  0  0  0  0  0
   16.8564  -11.2465   24.6535 C   0  0  1  0  0  0  0  0  0  0  0  0
   16.0308  -11.8330   25.8642 C   0  0  2  0  0  0  0  0  0  0  0  0
   14.9944  -12.9191   25.2909 C   0  0  1  0  0  0  0  0  0  0  0  0
   15.7967  -14.1522   24.6123 C   0  0  1  0  0  0  0  0  0  0  0  0
   14.8715  -15.2605   24.0379 C   0  0  0  0  0  0  0  0  0  0  0  0
   22.6249  -14.7236   23.7700 C   0  0  1  0  0  0  0  0  0  0  0  0
   21.6375  -15.3461   24.8816 C   0  0  0  0  0  0  0  0  0  0  0  0
   20.5523  -14.2761   25.3282 C   0  0  2  0  0  0  0  0  0  0  0  0
   14.1697  -13.4994   26.3562 F   0  0  0  0  0  0  0  0  0  0  0  0
   17.8874  -10.1925   25.0845 N   0  0  0  0  0  0  0  0  0  0  0  0
   15.5592  -16.3498   23.4475 N   0  0  0  0  0  0  0  0  0  0  0  0
   23.6136  -15.7915   23.4185 N   0  0  0  0  0  0  0  0  0  0  0  0
   19.6411  -14.8328   26.3236 N   0  0  0  0  0  0  0  0  0  0  0  0
   18.7718  -12.9382   24.5913 O   0  0  0  0  0  0  0  0  0  0  0  0
   19.8332  -12.8319   21.7753 O   0  0  0  0  0  0  0  0  0  0  0  0
   22.5577  -13.8003   21.5172 O   0  0  0  0  0  0  0  0  0  0  0  0
   15.4311  -10.9444   26.3501 O   0  0  0  0  0  0  0  0  0  0  0  0
   16.7142  -13.5335   23.4925 O   0  0  0  0  0  0  0  0  0  0  0  0
  1  5  1  0  0  0  0
  1 18  1  1  0  0  0
  2 18  1  1  0  0  0
  2  3  1  0  0  0  0
  2 12  1  0  0  0  0
  3 19  1  6  0  0  0
  3  4  1  0  0  0  0
  4 20  1  6  0  0  0
  4 10  1  0  0  0  0
  5  6  1  0  0  0  0
  5 14  1  1  0  0  0
  6 21  1  6  0  0  0
  7 13  1  1  0  0  0
  7  6  1  0  0  0  0
  8  9  1  6  0  0  0
  8  7  1  0  0  0  0
 10 16  1  6  0  0  0
 11 10  1  0  0  0  0
 12 17  1  1  0  0  0
 12 11  1  0  0  0  0
 15  9  1  0  0  0  0
 22  8  1  0  0  0  0
 22  1  1  0  0  0  0
M  END
>  <CHROM.1>
-173.17975291,68.96456202,-179.66269564,18.44735853,-13.54204742,24.29364207
-2.87035989,-0.26592296,-2.97501421

>  <Name>
lig.pdb

>  <RI>
0

>  <Rbt.Current_Directory>
/home/itssahil/PROJECTS/Mol_Feturizer/New_Systems/rnas/5bxk

>  <Rbt.Executable>
rbdock ($Id: //depot/dev/client3/rdock/2013.1/src/exe/rbdock.cxx#4 $)

>  <Rbt.Library>
libRbt.so (2013.1, Build901 2013/11/27)

>  <Rbt.Parameter_File>
/export/apps/rDock/src/rDock_2013.1_src/data/scripts/dock_solv.prm

>  <Rbt.Receptor>
prm/pocket_docking_7.prm

>  <SCORE>
-11.7878

>  <SCORE.INTER>
-7.79843

>  <SCORE.INTER.CONST>
1

>  <SCORE.INTER.POLAR>
0

>  <SCORE.INTER.ROT>
3

>  <SCORE.INTER.SOLV>
15.2987

>  <SCORE.INTER.VDW>
-15.8985

>  <SCORE.INTER.norm>
-0.354474

>  <SCORE.INTRA>
-3.98933

>  <SCORE.INTRA.DIHEDRAL>
-6.43656

>  <SCORE.INTRA.DIHEDRAL.0>
7.18044

>  <SCORE.INTRA.POLAR>
0

>  <SCORE.INTRA.POLAR.0>
0

>  <SCORE.INTRA.REPUL>
0

>  <SCORE.INTRA.REPUL.0>
0

>  <SCORE.INTRA.SOLV>
-1.63427

>  <SCORE.INTRA.SOLV.lig_0>
-72.0615

>  <SCORE.INTRA.VDW>
0.0460763

>  <SCORE.INTRA.VDW.0>
-1.54792

>  <SCORE.INTRA.norm>
-0.181333

>  <SCORE.RESTR>
0

>  <SCORE.RESTR.CAVITY>
0

>  <SCORE.RESTR.norm>
0

>  <SCORE.SYSTEM>
0

>  <SCORE.SYSTEM.CONST>
0

>  <SCORE.SYSTEM.DIHEDRAL>
0

>  <SCORE.SYSTEM.SOLV>
0

>  <SCORE.SYSTEM.norm>
0

>  <SCORE.heavy>
22

>  <SCORE.norm>
-0.535808

>  <RMSD>
6.651

$$$$
lig.pdb
 OpenBabel11021811523D
libRbt.so/2013.1/901 2013/11/27
 22 23  0  0  0  0  0  0  0  0999 V2000
   18.3228   -6.8827   26.5080 C   0  0  1  0  0  0  0  0  0  0  0  0
   16.6310   -8.6501   25.9957 C   0  0  1  0  0  0  0  0  0  0  0  0
   17.6759   -9.9116   25.9187 C   0  0  1  0  0  0  0  0  0  0  0  0
   16.9526  -11.0903   25.0926 C   0  0  2  0  0  0  0  0  0  0  0  0
   18.7195   -5.6977   27.4991 C   0  0  1  0  0  0  0  0  0  0  0  0
   17.7719   -4.4541   27.2827 C   0  0  2  0  0  0  0  0  0  0  0  0
   17.9624   -3.9291   25.7758 C   0  0  1  0  0  0  0  0  0  0  0  0
   17.5041   -5.0732   24.7242 C   0  0  1  0  0  0  0  0  0  0  0  0
   17.6440   -4.6479   23.2362 C   0  0  0  0  0  0  0  0  0  0  0  0
   15.6548  -11.5408   25.9261 C   0  0  1  0  0  0  0  0  0  0  0  0
   14.6602  -10.2741   25.9937 C   0  0  0  0  0  0  0  0  0  0  0  0
   15.3481   -9.0628   26.7563 C   0  0  2  0  0  0  0  0  0  0  0  0
   17.1274   -2.7554   25.4990 F   0  0  0  0  0  0  0  0  0  0  0  0
   18.6201   -6.2892   28.9133 N   0  0  0  0  0  0  0  0  0  0  0  0
   16.8091   -3.5683   22.8548 N   0  0  0  0  0  0  0  0  0  0  0  0
   14.9242  -12.6303   25.2045 N   0  0  0  0  0  0  0  0  0  0  0  0
   14.4633   -7.9029   26.8105 N   0  0  0  0  0  0  0  0  0  0  0  0
   17.1508   -7.5620   26.7259 O   0  0  0  0  0  0  0  0  0  0  0  0
   18.8898   -9.4643   25.1686 O   0  0  0  0  0  0  0  0  0  0  0  0
   17.8301  -12.1631   25.0245 O   0  0  0  0  0  0  0  0  0  0  0  0
   18.1121   -3.6123   28.0318 O   0  0  0  0  0  0  0  0  0  0  0  0
   18.3690   -6.3503   25.0395 O   0  0  0  0  0  0  0  0  0  0  0  0
  1  5  1  0  0  0  0
  1 18  1  1  0  0  0
  2 18  1  1  0  0  0
  2  3  1  0  0  0  0
  2 12  1  0  0  0  0
  3 19  1  6  0  0  0
  3  4  1  0  0  0  0
  4 20  1  1  0  0  0
  4 10  1  0  0  0  0
  5  6  1  0  0  0  0
  5 14  1  1  0  0  0
  6 21  1  1  0  0  0
  7 13  1  1  0  0  0
  7  6  1  0  0  0  0
  8  9  1  6  0  0  0
  8  7  1  0  0  0  0
 10 16  1  6  0  0  0
 11 10  1  0  0  0  0
 12 17  1  6  0  0  0
 12 11  1  0  0  0  0
 15  9  1  0  0  0  0
 22  8  1  0  0  0  0
 22  1  1  0  0  0  0
M  END
>  <CHROM.1>
-178.48302824,56.08485903,-64.16995331,17.16849658,-7.36433426,25.89686723
-0.82792972,1.26128955,2.45233856

>  <Name>
lig.pdb

>  <RI>
0

>  <Rbt.Current_Directory>
/home/itssahil/PROJECTS/Mol_Feturizer/New_Systems/rnas/5bxk

>  <Rbt.Executable>
rbdock ($Id: //depot/dev/client3/rdock/2013.1/src/exe/rbdock.cxx#4 $)

>  <Rbt.Library>
libRbt.so (2013.1, Build901 2013/11/27)

>  <Rbt.Parameter_File>
/export/apps/rDock/src/rDock_2013.1_src/data/scripts/dock_solv.prm

>  <Rbt.Receptor>
prm/pocket_docking_7.prm

>  <SCORE>
-8.64484

>  <SCORE.INTER>
-4.8565

>  <SCORE.INTER.CONST>
1

>  <SCORE.INTER.POLAR>
0

>  <SCORE.INTER.ROT>
3

>  <SCORE.INTER.SOLV>
13.2769

>  <SCORE.INTER.VDW>
-13.2633

>  <SCORE.INTER.norm>
-0.22075

>  <SCORE.INTRA>
-3.78833

>  <SCORE.INTRA.DIHEDRAL>
-6.89692

>  <SCORE.INTRA.DIHEDRAL.0>
7.18044

>  <SCORE.INTRA.POLAR>
0

>  <SCORE.INTRA.POLAR.0>
0

>  <SCORE.INTRA.REPUL>
0

>  <SCORE.INTRA.REPUL.0>
0

>  <SCORE.INTRA.SOLV>
-0.941166

>  <SCORE.INTRA.SOLV.lig_0>
-72.0615

>  <SCORE.INTRA.VDW>
0.130708

>  <SCORE.INTRA.VDW.0>
-1.54792

>  <SCORE.INTRA.norm>
-0.172197

>  <SCORE.RESTR>
0

>  <SCORE.RESTR.CAVITY>
0

>  <SCORE.RESTR.norm>
0

>  <SCORE.SYSTEM>
0

>  <SCORE.SYSTEM.CONST>
0

>  <SCORE.SYSTEM.DIHEDRAL>
0

>  <SCORE.SYSTEM.SOLV>
0

>  <SCORE.SYSTEM.norm>
0

>  <SCORE.heavy>
22

>  <SCORE.norm>
-0.392947

>  <RMSD>
6.654

$$$$
lig.pdb
 OpenBabel11021811523D
libRbt.so/2013.1/901 2013/11/27
 22 23  0  0  0  0  0  0  0  0999 V2000
   18.8076   -8.4440   26.7642 C   0  0  1  0  0  0  0  0  0  0  0  0
   16.9738   -9.9953   26.0720 C   0  0  1  0  0  0  0  0  0  0  0  0
   17.8911  -11.2447   25.5365 C   0  0  1  0  0  0  0  0  0  0  0  0
   16.9808  -12.1208   24.5371 C   0  0  2  0  0  0  0  0  0  0  0  0
   19.4572   -7.6480   27.9842 C   0  0  1  0  0  0  0  0  0  0  0  0
   18.5580   -6.4131   28.3813 C   0  0  2  0  0  0  0  0  0  0  0  0
   18.4797   -5.4184   27.1215 C   0  0  1  0  0  0  0  0  0  0  0  0
   17.7603   -6.1565   25.8715 C   0  0  1  0  0  0  0  0  0  0  0  0
   17.6305   -5.2627   24.6071 C   0  0  0  0  0  0  0  0  0  0  0  0
   15.7512  -12.7070   25.3894 C   0  0  1  0  0  0  0  0  0  0  0  0
   14.8831  -11.4528   25.9107 C   0  0  0  0  0  0  0  0  0  0  0  0
   15.7539  -10.5266   26.8623 C   0  0  2  0  0  0  0  0  0  0  0  0
   17.6749   -4.2283   27.4172 F   0  0  0  0  0  0  0  0  0  0  0  0
   19.6027   -8.6740   29.1182 N   0  0  0  0  0  0  0  0  0  0  0  0
   16.8344   -4.1044   24.7879 N   0  0  0  0  0  0  0  0  0  0  0  0
   14.8531  -13.5246   24.5140 N   0  0  0  0  0  0  0  0  0  0  0  0
   14.9839   -9.3774   27.3288 N   0  0  0  0  0  0  0  0  0  0  0  0
   17.6641   -9.1700   26.9829 O   0  0  0  0  0  0  0  0  0  0  0  0
   19.0468  -10.6792   24.7742 O   0  0  0  0  0  0  0  0  0  0  0  0
   17.7496  -13.1820   24.0806 O   0  0  0  0  0  0  0  0  0  0  0  0
   19.0854   -5.8619   29.2776 O   0  0  0  0  0  0  0  0  0  0  0  0
   18.5960   -7.4566   25.5717 O   0  0  0  0  0  0  0  0  0  0  0  0
  1  5  1  0  0  0  0
  1 18  1  1  0  0  0
  2 18  1  1  0  0  0
  2  3  1  0  0  0  0
  2 12  1  0  0  0  0
  3 19  1  6  0  0  0
  3  4  1  0  0  0  0
  4 20  1  1  0  0  0
  4 10  1  0  0  0  0
  5  6  1  0  0  0  0
  5 14  1  1  0  0  0
  6 21  1  1  0  0  0
  7 13  1  1  0  0  0
  7  6  1  0  0  0  0
  8  9  1  6  0  0  0
  8  7  1  0  0  0  0
 10 16  1  6  0  0  0
 11 10  1  0  0  0  0
 12 17  1  6  0  0  0
 12 11  1  0  0  0  0
 15  9  1  0  0  0  0
 22  8  1  0  0  0  0
 22  1  1  0  0  0  0
M  END
>  <CHROM.1>
-176.30469672,61.21965453,-62.26612454,17.52851374,-8.73578008,26.32071603
-1.14139165,0.90305415,3.09099605

>  <Name>
lig.pdb

>  <RI>
0

>  <Rbt.Current_Directory>
/home/itssahil/PROJECTS/Mol_Feturizer/New_Systems/rnas/5bxk

>  <Rbt.Executable>
rbdock ($Id: //depot/dev/client3/rdock/2013.1/src/exe/rbdock.cxx#4 $)

>  <Rbt.Library>
libRbt.so (2013.1, Build901 2013/11/27)

>  <Rbt.Parameter_File>
/export/apps/rDock/src/rDock_2013.1_src/data/scripts/dock_solv.prm

>  <Rbt.Receptor>
prm/pocket_docking_4.prm

>  <SCORE>
-8.29651

>  <SCORE.INTER>
-4.51511

>  <SCORE.INTER.CONST>
1

>  <SCORE.INTER.POLAR>
0

>  <SCORE.INTER.ROT>
3

>  <SCORE.INTER.SOLV>
14.9717

>  <SCORE.INTER.VDW>
-13.6007

>  <SCORE.INTER.norm>
-0.205232

>  <SCORE.INTRA>
-3.7814

>  <SCORE.INTRA.DIHEDRAL>
-6.95493

>  <SCORE.INTRA.DIHEDRAL.0>
7.18044

>  <SCORE.INTRA.POLAR>
0

>  <SCORE.INTRA.POLAR.0>
0

>  <SCORE.INTRA.REPUL>
0

>  <SCORE.INTRA.REPUL.0>
0

>  <SCORE.INTRA.SOLV>
-0.872172

>  <SCORE.INTRA.SOLV.lig_0>
-72.0615

>  <SCORE.INTRA.VDW>
0.132152

>  <SCORE.INTRA.VDW.0>
-1.54792

>  <SCORE.INTRA.norm>
-0.171882

>  <SCORE.RESTR>
0

>  <SCORE.RESTR.CAVITY>
0

>  <SCORE.RESTR.norm>
0

>  <SCORE.SYSTEM>
0

>  <SCORE.SYSTEM.CONST>
0

>  <SCORE.SYSTEM.DIHEDRAL>
0

>  <SCORE.SYSTEM.SOLV>
0

>  <SCORE.SYSTEM.norm>
0

>  <SCORE.heavy>
22

>  <SCORE.norm>
-0.377114

>  <RMSD>
6.655

$$$$
lig.pdb
 OpenBabel11021811523D
libRbt.so/2013.1/901 2013/11/27
 22 23  0  0  0  0  0  0  0  0999 V2000
   16.0159   -8.8754   27.1666 C   0  0  1  0  0  0  0  0  0  0  0  0
   16.2565  -11.0247   25.9132 C   0  0  1  0  0  0  0  0  0  0  0  0
   14.9079  -11.8325   26.3801 C   0  0  1  0  0  0  0  0  0  0  0  0
   15.1903  -13.4054   26.1765 C   0  0  2  0  0  0  0  0  0  0  0  0
   15.8823   -7.2914   27.0365 C   0  0  1  0  0  0  0  0  0  0  0  0
   17.2431   -6.6592   26.5466 C   0  0  2  0  0  0  0  0  0  0  0  0
   18.3725   -6.9762   27.6449 C   0  0  1  0  0  0  0  0  0  0  0  0
   18.6000   -8.5757   27.7660 C   0  0  1  0  0  0  0  0  0  0  0  0
   19.6870   -8.9768   28.8013 C   0  0  0  0  0  0  0  0  0  0  0  0
   15.4289  -13.6560   24.6073 C   0  0  1  0  0  0  0  0  0  0  0  0
   16.7504  -12.8364   24.1825 C   0  0  0  0  0  0  0  0  0  0  0  0
   16.5413  -11.2792   24.4135 C   0  0  2  0  0  0  0  0  0  0  0  0
   19.6698   -6.4016   27.2728 F   0  0  0  0  0  0  0  0  0  0  0  0
   14.7226   -7.0521   26.0580 N   0  0  0  0  0  0  0  0  0  0  0  0
   20.9798   -8.4696   28.5195 N   0  0  0  0  0  0  0  0  0  0  0  0
   15.7117  -15.1031   24.3477 N   0  0  0  0  0  0  0  0  0  0  0  0
   17.7373  -10.5263   24.0477 N   0  0  0  0  0  0  0  0  0  0  0  0
   16.1136   -9.6265   26.0226 O   0  0  0  0  0  0  0  0  0  0  0  0
   14.6838  -11.5615   27.8335 O   0  0  0  0  0  0  0  0  0  0  0  0
   14.0524  -14.0965   26.5677 O   0  0  0  0  0  0  0  0  0  0  0  0
   17.0893   -5.4946   26.4744 O   0  0  0  0  0  0  0  0  0  0  0  0
   17.2031   -9.2053   28.1277 O   0  0  0  0  0  0  0  0  0  0  0  0
  1  5  1  0  0  0  0
  1 18  1  6  0  0  0
  2 18  1  6  0  0  0
  2  3  1  0  0  0  0
  2 12  1  0  0  0  0
  3 19  1  1  0  0  0
  3  4  1  0  0  0  0
  4 20  1  6  0  0  0
  4 10  1  0  0  0  0
  5  6  1  0  0  0  0
  5 14  1  6  0  0  0
  6 21  1  1  0  0  0
  7 13  1  6  0  0  0
  7  6  1  0  0  0  0
  8  9  1  1  0  0  0
  8  7  1  0  0  0  0
 10 16  1  1  0  0  0
 11 10  1  0  0  0  0
 12 17  1  1  0  0  0
 12 11  1  0  0  0  0
 15  9  1  0  0  0  0
 22  8  1  0  0  0  0
 22  1  1  0  0  0  0
M  END
>  <CHROM.1>
179.04544508,68.93365917,-60.79370733,16.79222852,-9.89600995,26.48374846
1.11994837,-0.26420252,0.18920987

>  <Name>
lig.pdb

>  <RI>
0

>  <Rbt.Current_Directory>
/home/itssahil/PROJECTS/Mol_Feturizer/New_Systems/rnas/5bxk

>  <Rbt.Executable>
rbdock ($Id: //depot/dev/client3/rdock/2013.1/src/exe/rbdock.cxx#4 $)

>  <Rbt.Library>
libRbt.so (2013.1, Build901 2013/11/27)

>  <Rbt.Parameter_File>
/export/apps/rDock/src/rDock_2013.1_src/data/scripts/dock_solv.prm

>  <Rbt.Receptor>
prm/pocket_docking_8.prm

>  <SCORE>
-9.16736

>  <SCORE.INTER>
-5.54268

>  <SCORE.INTER.CONST>
1

>  <SCORE.INTER.POLAR>
0

>  <SCORE.INTER.ROT>
3

>  <SCORE.INTER.SOLV>
18.1384

>  <SCORE.INTER.VDW>
-15.3412

>  <SCORE.INTER.norm>
-0.25194

>  <SCORE.INTRA>
-3.62468

>  <SCORE.INTRA.DIHEDRAL>
-6.65186

>  <SCORE.INTRA.DIHEDRAL.0>
7.18044

>  <SCORE.INTRA.POLAR>
0

>  <SCORE.INTRA.POLAR.0>
0

>  <SCORE.INTRA.REPUL>
0

>  <SCORE.INTRA.REPUL.0>
0

>  <SCORE.INTRA.SOLV>
-0.735033

>  <SCORE.INTRA.SOLV.lig_0>
-72.0615

>  <SCORE.INTRA.VDW>
0.068767

>  <SCORE.INTRA.VDW.0>
-1.54792

>  <SCORE.INTRA.norm>
-0.164758

>  <SCORE.RESTR>
0

>  <SCORE.RESTR.CAVITY>
0

>  <SCORE.RESTR.norm>
0

>  <SCORE.SYSTEM>
0

>  <SCORE.SYSTEM.CONST>
0

>  <SCORE.SYSTEM.DIHEDRAL>
0

>  <SCORE.SYSTEM.SOLV>
0

>  <SCORE.SYSTEM.norm>
0

>  <SCORE.heavy>
22

>  <SCORE.norm>
-0.416698

>  <RMSD>
6.656

$$$$
lig.pdb
 OpenBabel11021811523D
libRbt.so/2013.1/901 2013/11/27
 22 23  0  0  0  0  0  0  0  0999 V2000
   15.0585   -8.9833   27.0926 C   0  0  1  0  0  0  0  0  0  0  0  0
   16.0816  -10.8322   25.7572 C   0  0  1  0  0  0  0  0  0  0  0  0
   14.8792  -11.9471   25.7410 C   0  0  1  0  0  0  0  0  0  0  0  0
   15.5555  -13.3855   25.4788 C   0  0  2  0  0  0  0  0  0  0  0  0
   14.5956   -7.4571   27.0763 C   0  0  1  0  0  0  0  0  0  0  0  0
   15.8488   -6.4988   27.0277 C   0  0  2  0  0  0  0  0  0  0  0  0
   16.7226   -6.7411   28.3544 C   0  0  1  0  0  0  0  0  0  0  0  0
   17.2798   -8.2621   28.3857 C   0  0  1  0  0  0  0  0  0  0  0  0
   18.1484   -8.5851   29.6329 C   0  0  0  0  0  0  0  0  0  0  0  0
   16.2422  -13.3410   24.0267 C   0  0  1  0  0  0  0  0  0  0  0  0
   17.4056  -12.2263   24.0764 C   0  0  0  0  0  0  0  0  0  0  0  0
   16.7945  -10.7932   24.3842 C   0  0  2  0  0  0  0  0  0  0  0  0
   17.9011   -5.8687   28.3965 F   0  0  0  0  0  0  0  0  0  0  0  0
   13.6825   -7.3138   25.8493 N   0  0  0  0  0  0  0  0  0  0  0  0
   19.3385   -7.8222   29.7313 N   0  0  0  0  0  0  0  0  0  0  0  0
   16.9048  -14.6488   23.7232 N   0  0  0  0  0  0  0  0  0  0  0  0
   17.8402   -9.7765   24.4479 N   0  0  0  0  0  0  0  0  0  0  0  0
   15.6004   -9.5217   25.9528 O   0  0  0  0  0  0  0  0  0  0  0  0
   14.2313  -11.9513   27.0888 O   0  0  0  0  0  0  0  0  0  0  0  0
   14.5438  -14.3351   25.4617 O   0  0  0  0  0  0  0  0  0  0  0  0
   15.4505   -5.3912   27.0234 O   0  0  0  0  0  0  0  0  0  0  0  0
   16.0228   -9.2062   28.3018 O   0  0  0  0  0  0  0  0  0  0  0  0
  1  5  1  0  0  0  0
  1 18  1  6  0  0  0
  2 18  1  6  0  0  0
  2  3  1  0  0  0  0
  2 12  1  0  0  0  0
  3 19  1  1  0  0  0
  3  4  1  0  0  0  0
  4 20  1  6  0  0  0
  4 10  1  0  0  0  0
  5  6  1  0  0  0  0
  5 14  1  6  0  0  0
  6 21  1  1  0  0  0
  7 13  1  6  0  0  0
  7  6  1  0  0  0  0
  8  9  1  1  0  0  0
  8  7  1  0  0  0  0
 10 16  1  1  0  0  0
 11 10  1  0  0  0  0
 12 17  1  1  0  0  0
 12 11  1  0  0  0  0
 15  9  1  0  0  0  0
 22  8  1  0  0  0  0
 22  1  1  0  0  0  0
M  END
>  <CHROM.1>
179.31948596,69.91025313,-62.73724913,16.19165336,-9.71380604,26.54447196
1.42796394,-0.42511146,0.42630883

>  <Name>
lig.pdb

>  <RI>
0

>  <Rbt.Current_Directory>
/home/itssahil/PROJECTS/Mol_Feturizer/New_Systems/rnas/5bxk

>  <Rbt.Executable>
rbdock ($Id: //depot/dev/client3/rdock/2013.1/src/exe/rbdock.cxx#4 $)

>  <Rbt.Library>
libRbt.so (2013.1, Build901 2013/11/27)

>  <Rbt.Parameter_File>
/export/apps/rDock/src/rDock_2013.1_src/data/scripts/dock_solv.prm

>  <Rbt.Receptor>
prm/pocket_docking_3.prm

>  <SCORE>
-7.81607

>  <SCORE.INTER>
-4.22347

>  <SCORE.INTER.CONST>
1

>  <SCORE.INTER.POLAR>
0

>  <SCORE.INTER.ROT>
3

>  <SCORE.INTER.SOLV>
15.1035

>  <SCORE.INTER.VDW>
-13.4501

>  <SCORE.INTER.norm>
-0.191976

>  <SCORE.INTRA>
-3.59282

>  <SCORE.INTRA.DIHEDRAL>
-6.54245

>  <SCORE.INTRA.DIHEDRAL.0>
7.18044

>  <SCORE.INTRA.POLAR>
0

>  <SCORE.INTRA.POLAR.0>
0

>  <SCORE.INTRA.REPUL>
0

>  <SCORE.INTRA.REPUL.0>
0

>  <SCORE.INTRA.SOLV>
-0.733515

>  <SCORE.INTRA.SOLV.lig_0>
-72.0615

>  <SCORE.INTRA.VDW>
0.045166

>  <SCORE.INTRA.VDW.0>
-1.54792

>  <SCORE.INTRA.norm>
-0.16331

>  <SCORE.RESTR>
0.000211365

>  <SCORE.RESTR.CAVITY>
0.000211365

>  <SCORE.RESTR.norm>
9.6075e-06

>  <SCORE.SYSTEM>
0

>  <SCORE.SYSTEM.CONST>
0

>  <SCORE.SYSTEM.DIHEDRAL>
0

>  <SCORE.SYSTEM.SOLV>
0

>  <SCORE.SYSTEM.norm>
0

>  <SCORE.heavy>
22

>  <SCORE.norm>
-0.355276

>  <RMSD>
6.659

$$$$
lig.pdb
 OpenBabel11021811523D
libRbt.so/2013.1/901 2013/11/27
 22 23  0  0  0  0  0  0  0  0999 V2000
   13.7026   -8.5194   27.0822 C   0  0  1  0  0  0  0  0  0  0  0  0
   15.5737   -9.7888   26.0165 C   0  0  1  0  0  0  0  0  0  0  0  0
   14.7726  -11.1853   25.7051 C   0  0  1  0  0  0  0  0  0  0  0  0
   15.8743  -12.3478   25.5316 C   0  0  2  0  0  0  0  0  0  0  0  0
   12.9646   -7.1078   27.1648 C   0  0  1  0  0  0  0  0  0  0  0  0
   13.9268   -6.0146   27.7735 C   0  0  2  0  0  0  0  0  0  0  0  0
   14.3190   -6.4607   29.2666 C   0  0  1  0  0  0  0  0  0  0  0  0
   15.1369   -7.8589   29.2346 C   0  0  1  0  0  0  0  0  0  0  0  0
   15.5687   -8.3638   30.6393 C   0  0  0  0  0  0  0  0  0  0  0  0
   16.7787  -11.9724   24.2576 C   0  0  1  0  0  0  0  0  0  0  0  0
   17.5370  -10.5902   24.5935 C   0  0  0  0  0  0  0  0  0  0  0  0
   16.4894   -9.4193   24.8249 C   0  0  2  0  0  0  0  0  0  0  0  0
   15.1995   -5.4819   29.9133 F   0  0  0  0  0  0  0  0  0  0  0  0
   12.5227   -6.7863   25.7292 N   0  0  0  0  0  0  0  0  0  0  0  0
   14.4984   -8.5514   31.5488 N   0  0  0  0  0  0  0  0  0  0  0  0
   17.8373  -13.0097   24.0461 N   0  0  0  0  0  0  0  0  0  0  0  0
   17.1630   -8.1646   25.1461 N   0  0  0  0  0  0  0  0  0  0  0  0
   14.7047   -8.6882   26.1604 O   0  0  0  0  0  0  0  0  0  0  0  0
   13.9125  -11.5010   26.8870 O   0  0  0  0  0  0  0  0  0  0  0  0
   15.2043  -13.5334   25.2657 O   0  0  0  0  0  0  0  0  0  0  0  0
   13.3315   -5.0001   27.8163 O   0  0  0  0  0  0  0  0  0  0  0  0
   14.2140   -8.9065   28.5072 O   0  0  0  0  0  0  0  0  0  0  0  0
  1  5  1  0  0  0  0
  1 18  1  6  0  0  0
  2 18  1  6  0  0  0
  2  3  1  0  0  0  0
  2 12  1  0  0  0  0
  3 19  1  1  0  0  0
  3  4  1  0  0  0  0
  4 20  1  6  0  0  0
  4 10  1  0  0  0  0
  5  6  1  0  0  0  0
  5 14  1  6  0  0  0
  6 21  1  1  0  0  0
  7 13  1  6  0  0  0
  7  6  1  0  0  0  0
  8  9  1  1  0  0  0
  8  7  1  0  0  0  0
 10 16  1  1  0  0  0
 11 10  1  0  0  0  0
 12 17  1  1  0  0  0
 12 11  1  0  0  0  0
 15  9  1  0  0  0  0
 22  8  1  0  0  0  0
 22  1  1  0  0  0  0
M  END
>  <CHROM.1>
172.57723661,60.38111231,57.62859221,15.03680971,-9.01459924,27.01431327
2.79036699,-1.24588447,1.85925486

>  <Name>
lig.pdb

>  <RI>
0

>  <Rbt.Current_Directory>
/home/itssahil/PROJECTS/Mol_Feturizer/New_Systems/rnas/5bxk

>  <Rbt.Executable>
rbdock ($Id: //depot/dev/client3/rdock/2013.1/src/exe/rbdock.cxx#4 $)

>  <Rbt.Library>
libRbt.so (2013.1, Build901 2013/11/27)

>  <Rbt.Parameter_File>
/export/apps/rDock/src/rDock_2013.1_src/data/scripts/dock_solv.prm

>  <Rbt.Receptor>
prm/pocket_docking_5.prm

>  <SCORE>
-10.0935

>  <SCORE.INTER>
-6.33676

>  <SCORE.INTER.CONST>
1

>  <SCORE.INTER.POLAR>
0

>  <SCORE.INTER.ROT>
3

>  <SCORE.INTER.SOLV>
13.5997

>  <SCORE.INTER.VDW>
-14.3578

>  <SCORE.INTER.norm>
-0.288035

>  <SCORE.INTRA>
-3.75675

>  <SCORE.INTRA.DIHEDRAL>
-6.76601

>  <SCORE.INTRA.DIHEDRAL.0>
7.18044

>  <SCORE.INTRA.POLAR>
0

>  <SCORE.INTRA.POLAR.0>
0

>  <SCORE.INTRA.REPUL>
0

>  <SCORE.INTRA.REPUL.0>
0

>  <SCORE.INTRA.SOLV>
-0.737823

>  <SCORE.INTRA.SOLV.lig_0>
-72.0615

>  <SCORE.INTRA.VDW>
-0.00483735

>  <SCORE.INTRA.VDW.0>
-1.54792

>  <SCORE.INTRA.norm>
-0.170761

>  <SCORE.RESTR>
0

>  <SCORE.RESTR.CAVITY>
0

>  <SCORE.RESTR.norm>
0

>  <SCORE.SYSTEM>
0

>  <SCORE.SYSTEM.CONST>
0

>  <SCORE.SYSTEM.DIHEDRAL>
0

>  <SCORE.SYSTEM.SOLV>
0

>  <SCORE.SYSTEM.norm>
0

>  <SCORE.heavy>
22

>  <SCORE.norm>
-0.458796

>  <RMSD>
6.661

$$$$
lig.pdb
 OpenBabel11021811523D
libRbt.so/2013.1/901 2013/11/27
 22 23  0  0  0  0  0  0  0  0999 V2000
   16.7088   -7.5423   26.3039 C   0  0  1  0  0  0  0  0  0  0  0  0
   15.2512   -9.4169   25.5231 C   0  0  1  0  0  0  0  0  0  0  0  0
   16.5577  -10.2293   24.9554 C   0  0  1  0  0  0  0  0  0  0  0  0
   16.1048  -11.7529   24.6934 C   0  0  2  0  0  0  0  0  0  0  0  0
   16.6580   -6.6512   27.6258 C   0  0  1  0  0  0  0  0  0  0  0  0
   15.9690   -5.2620   27.3311 C   0  0  2  0  0  0  0  0  0  0  0  0
   16.8506   -4.4821   26.2371 C   0  0  1  0  0  0  0  0  0  0  0  0
   16.8762   -5.3123   24.8460 C   0  0  1  0  0  0  0  0  0  0  0  0
   17.6998   -4.6250   23.7219 C   0  0  0  0  0  0  0  0  0  0  0  0
   15.6766  -12.3817   26.1087 C   0  0  1  0  0  0  0  0  0  0  0  0
   14.4026  -11.5501   26.6414 C   0  0  0  0  0  0  0  0  0  0  0  0
   14.7845  -10.0253   26.8673 C   0  0  2  0  0  0  0  0  0  0  0  0
   16.2863   -3.1654   25.9219 F   0  0  0  0  0  0  0  0  0  0  0  0
   15.8969   -7.4908   28.6628 N   0  0  0  0  0  0  0  0  0  0  0  0
   17.1699   -3.3869   23.2810 N   0  0  0  0  0  0  0  0  0  0  0  0
   15.2294  -13.7999   25.9351 N   0  0  0  0  0  0  0  0  0  0  0  0
   13.6344   -9.2571   27.3346 N   0  0  0  0  0  0  0  0  0  0  0  0
   15.5392   -8.0684   25.8163 O   0  0  0  0  0  0  0  0  0  0  0  0
   16.9611   -9.6100   23.6554 O   0  0  0  0  0  0  0  0  0  0  0  0
   17.2060  -12.4482   24.2144 O   0  0  0  0  0  0  0  0  0  0  0  0
   15.9642   -4.6468   28.3345 O   0  0  0  0  0  0  0  0  0  0  0  0
   17.4450   -6.7412   25.1822 O   0  0  0  0  0  0  0  0  0  0  0  0
  1  5  1  0  0  0  0
  1 18  1  6  0  0  0
  2 18  1  1  0  0  0
  2  3  1  0  0  0  0
  2 12  1  0  0  0  0
  3 19  1  6  0  0  0
  3  4  1  0  0  0  0
  4 20  1  1  0  0  0
  4 10  1  0  0  0  0
  5  6  1  0  0  0  0
  5 14  1  1  0  0  0
  6 21  1  1  0  0  0
  7 13  1  6  0  0  0
  7  6  1  0  0  0  0
  8  9  1  6  0  0  0
  8  7  1  0  0  0  0
 10 16  1  6  0  0  0
 11 10  1  0  0  0  0
 12 17  1  6  0  0  0
 12 11  1  0  0  0  0
 15  9  1  0  0  0  0
 22  8  1  0  0  0  0
 22  1  1  0  0  0  0
M  END
>  <CHROM.1>
-125.78937872,-34.29943528,-64.94751863,16.14827512,-8.00551087,25.85380958
1.26378352,1.08643934,0.29758328

>  <Name>
lig.pdb

>  <RI>
0

>  <Rbt.Current_Directory>
/home/itssahil/PROJECTS/Mol_Feturizer/New_Systems/rnas/5bxk

>  <Rbt.Executable>
rbdock ($Id: //depot/dev/client3/rdock/2013.1/src/exe/rbdock.cxx#4 $)

>  <Rbt.Library>
libRbt.so (2013.1, Build901 2013/11/27)

>  <Rbt.Parameter_File>
/export/apps/rDock/src/rDock_2013.1_src/data/scripts/dock_solv.prm

>  <Rbt.Receptor>
prm/pocket_docking_7.prm

>  <SCORE>
-3.36485

>  <SCORE.INTER>
-5.85344

>  <SCORE.INTER.CONST>
1

>  <SCORE.INTER.POLAR>
0

>  <SCORE.INTER.ROT>
3

>  <SCORE.INTER.SOLV>
14.3369

>  <SCORE.INTER.VDW>
-14.2813

>  <SCORE.INTER.norm>
-0.266065

>  <SCORE.INTRA>
2.48859

>  <SCORE.INTRA.DIHEDRAL>
2.61161

>  <SCORE.INTRA.DIHEDRAL.0>
7.18044

>  <SCORE.INTRA.POLAR>
0

>  <SCORE.INTRA.POLAR.0>
0

>  <SCORE.INTRA.REPUL>
0

>  <SCORE.INTRA.REPUL.0>
0

>  <SCORE.INTRA.SOLV>
2.24481

>  <SCORE.INTRA.SOLV.lig_0>
-72.0615

>  <SCORE.INTRA.VDW>
0.0603792

>  <SCORE.INTRA.VDW.0>
-1.54792

>  <SCORE.INTRA.norm>
0.113118

>  <SCORE.RESTR>
0

>  <SCORE.RESTR.CAVITY>
0

>  <SCORE.RESTR.norm>
0

>  <SCORE.SYSTEM>
0

>  <SCORE.SYSTEM.CONST>
0

>  <SCORE.SYSTEM.DIHEDRAL>
0

>  <SCORE.SYSTEM.SOLV>
0

>  <SCORE.SYSTEM.norm>
0

>  <SCORE.heavy>
22

>  <SCORE.norm>
-0.152948

>  <RMSD>
6.661

$$$$
lig.pdb
 OpenBabel11021811523D
libRbt.so/2013.1/901 2013/11/27
 22 23  0  0  0  0  0  0  0  0999 V2000
   15.9562   -8.8734   27.1434 C   0  0  1  0  0  0  0  0  0  0  0  0
   16.2627  -11.0306   25.9184 C   0  0  1  0  0  0  0  0  0  0  0  0
   14.9023  -11.8368   26.3527 C   0  0  1  0  0  0  0  0  0  0  0  0
   15.1931  -13.4109   26.1716 C   0  0  2  0  0  0  0  0  0  0  0  0
   15.8226   -7.2909   26.9956 C   0  0  1  0  0  0  0  0  0  0  0  0
   17.2036   -6.6559   26.5700 C   0  0  2  0  0  0  0  0  0  0  0  0
   18.2778   -6.9601   27.7258 C   0  0  1  0  0  0  0  0  0  0  0  0
   18.5057   -8.5577   27.8693 C   0  0  1  0  0  0  0  0  0  0  0  0
   19.5412   -8.9468   28.9606 C   0  0  0  0  0  0  0  0  0  0  0  0
   15.4780  -13.6750   24.6123 C   0  0  1  0  0  0  0  0  0  0  0  0
   16.8100  -12.8567   24.2191 C   0  0  0  0  0  0  0  0  0  0  0  0
   16.5916  -11.2979   24.4300 C   0  0  2  0  0  0  0  0  0  0  0  0
   19.5897   -6.3822   27.4150 F   0  0  0  0  0  0  0  0  0  0  0  0
   14.7124   -7.0636   25.9586 N   0  0  0  0  0  0  0  0  0  0  0  0
   20.8437   -8.4333   28.7417 N   0  0  0  0  0  0  0  0  0  0  0  0
   15.7707  -15.1238   24.3741 N   0  0  0  0  0  0  0  0  0  0  0  0
   17.7966  -10.5460   24.0926 N   0  0  0  0  0  0  0  0  0  0  0  0
   16.1143   -9.6318   26.0110 O   0  0  0  0  0  0  0  0  0  0  0  0
   14.6353  -11.5533   27.7966 O   0  0  0  0  0  0  0  0  0  0  0  0
   14.0454  -14.1007   26.5355 O   0  0  0  0  0  0  0  0  0  0  0  0
   17.0486   -5.4924   26.4821 O   0  0  0  0  0  0  0  0  0  0  0  0
   17.0952   -9.1913   28.1650 O   0  0  0  0  0  0  0  0  0  0  0  0
  1  5  1  0  0  0  0
  1 18  1  6  0  0  0
  2 18  1  6  0  0  0
  2  3  1  0  0  0  0
  2 12  1  0  0  0  0
  3 19  1  1  0  0  0
  3  4  1  0  0  0  0
  4 20  1  6  0  0  0
  4 10  1  0  0  0  0
  5  6  1  0  0  0  0
  5 14  1  6  0  0  0
  6 21  1  1  0  0  0
  7 13  1  6  0  0  0
  7  6  1  0  0  0  0
  8  9  1  1  0  0  0
  8  7  1  0  0  0  0
 10 16  1  1  0  0  0
 11 10  1  0  0  0  0
 12 17  1  1  0  0  0
 12 11  1  0  0  0  0
 15  9  1  0  0  0  0
 22  8  1  0  0  0  0
 22  1  1  0  0  0  0
M  END
>  <CHROM.1>
179.34575418,67.56323374,-60.67368132,16.76168769,-9.89489270,26.51372459
1.12834953,-0.33111324,0.17407588

>  <Name>
lig.pdb

>  <RI>
0

>  <Rbt.Current_Directory>
/home/itssahil/PROJECTS/Mol_Feturizer/New_Systems/rnas/5bxk

>  <Rbt.Executable>
rbdock ($Id: //depot/dev/client3/rdock/2013.1/src/exe/rbdock.cxx#4 $)

>  <Rbt.Library>
libRbt.so (2013.1, Build901 2013/11/27)

>  <Rbt.Parameter_File>
/export/apps/rDock/src/rDock_2013.1_src/data/scripts/dock_solv.prm

>  <Rbt.Receptor>
prm/pocket_docking_4.prm

>  <SCORE>
-9.19711

>  <SCORE.INTER>
-5.51918

>  <SCORE.INTER.CONST>
1

>  <SCORE.INTER.POLAR>
0

>  <SCORE.INTER.ROT>
3

>  <SCORE.INTER.SOLV>
17.1035

>  <SCORE.INTER.VDW>
-14.9806

>  <SCORE.INTER.norm>
-0.250872

>  <SCORE.INTRA>
-3.67793

>  <SCORE.INTRA.DIHEDRAL>
-6.76288

>  <SCORE.INTRA.DIHEDRAL.0>
7.18044

>  <SCORE.INTRA.POLAR>
0

>  <SCORE.INTRA.POLAR.0>
0

>  <SCORE.INTRA.REPUL>
0

>  <SCORE.INTRA.REPUL.0>
0

>  <SCORE.INTRA.SOLV>
-0.755384

>  <SCORE.INTRA.SOLV.lig_0>
-72.0615

>  <SCORE.INTRA.VDW>
0.0812008

>  <SCORE.INTRA.VDW.0>
-1.54792

>  <SCORE.INTRA.norm>
-0.167179

>  <SCORE.RESTR>
0

>  <SCORE.RESTR.CAVITY>
0

>  <SCORE.RESTR.norm>
0

>  <SCORE.SYSTEM>
0

>  <SCORE.SYSTEM.CONST>
0

>  <SCORE.SYSTEM.DIHEDRAL>
0

>  <SCORE.SYSTEM.SOLV>
0

>  <SCORE.SYSTEM.norm>
0

>  <SCORE.heavy>
22

>  <SCORE.norm>
-0.418051

>  <RMSD>
6.663

$$$$
lig.pdb
 OpenBabel11021811523D
libRbt.so/2013.1/901 2013/11/27
 22 23  0  0  0  0  0  0  0  0999 V2000
   16.1582   -8.7263   26.9382 C   0  0  1  0  0  0  0  0  0  0  0  0
   16.2673  -10.9351   25.7731 C   0  0  1  0  0  0  0  0  0  0  0  0
   14.9312  -11.7138   26.3189 C   0  0  1  0  0  0  0  0  0  0  0  0
   15.1983  -13.2956   26.1722 C   0  0  2  0  0  0  0  0  0  0  0  0
   16.0239   -7.1488   26.7445 C   0  0  1  0  0  0  0  0  0  0  0  0
   17.3335   -6.5576   26.0911 C   0  0  2  0  0  0  0  0  0  0  0  0
   18.5647   -6.8352   27.0858 C   0  0  1  0  0  0  0  0  0  0  0  0
   18.7914   -8.4297   27.2620 C   0  0  1  0  0  0  0  0  0  0  0  0
   19.9735   -8.7938   28.2024 C   0  0  0  0  0  0  0  0  0  0  0  0
   15.3820  -13.6132   24.6077 C   0  0  1  0  0  0  0  0  0  0  0  0
   16.6924  -12.8209   24.1044 C   0  0  0  0  0  0  0  0  0  0  0  0
   16.4993  -11.2540   24.2767 C   0  0  2  0  0  0  0  0  0  0  0  0
   19.8224   -6.2951   26.5585 F   0  0  0  0  0  0  0  0  0  0  0  0
   14.7739   -6.9427   25.8757 N   0  0  0  0  0  0  0  0  0  0  0  0
   19.8373   -8.3119   29.5280 N   0  0  0  0  0  0  0  0  0  0  0  0
   15.6483  -15.0718   24.3998 N   0  0  0  0  0  0  0  0  0  0  0  0
   17.6861  -10.5250   23.8392 N   0  0  0  0  0  0  0  0  0  0  0  0
   16.1354   -9.5327   25.8284 O   0  0  0  0  0  0  0  0  0  0  0  0
   14.7582  -11.3806   27.7665 O   0  0  0  0  0  0  0  0  0  0  0  0
   14.0709  -13.9622   26.6304 O   0  0  0  0  0  0  0  0  0  0  0  0
   17.1818   -5.3960   25.9775 O   0  0  0  0  0  0  0  0  0  0  0  0
   17.4331   -9.0241   27.7914 O   0  0  0  0  0  0  0  0  0  0  0  0
  1  5  1  0  0  0  0
  1 18  1  6  0  0  0
  2 18  1  6  0  0  0
  2  3  1  0  0  0  0
  2 12  1  0  0  0  0
  3 19  1  1  0  0  0
  3  4  1  0  0  0  0
  4 20  1  6  0  0  0
  4 10  1  0  0  0  0
  5  6  1  0  0  0  0
  5 14  1  6  0  0  0
  6 21  1  1  0  0  0
  7 13  1  6  0  0  0
  7  6  1  0  0  0  0
  8  9  1  1  0  0  0
  8  7  1  0  0  0  0
 10 16  1  1  0  0  0
 11 10  1  0  0  0  0
 12 17  1  1  0  0  0
 12 11  1  0  0  0  0
 15  9  1  0  0  0  0
 22  8  1  0  0  0  0
 22  1  1  0  0  0  0
M  END
>  <CHROM.1>
178.47861943,73.06170300,60.30153655,16.80968339,-9.78776399,26.28841002
1.06811900,-0.51305215,-0.00163575

>  <Name>
lig.pdb

>  <RI>
0

>  <Rbt.Current_Directory>
/home/itssahil/PROJECTS/Mol_Feturizer/New_Systems/rnas/5bxk

>  <Rbt.Executable>
rbdock ($Id: //depot/dev/client3/rdock/2013.1/src/exe/rbdock.cxx#4 $)

>  <Rbt.Library>
libRbt.so (2013.1, Build901 2013/11/27)

>  <Rbt.Parameter_File>
/export/apps/rDock/src/rDock_2013.1_src/data/scripts/dock_solv.prm

>  <Rbt.Receptor>
prm/pocket_docking_3.prm

>  <SCORE>
-9.45556

>  <SCORE.INTER>
-6.01231

>  <SCORE.INTER.CONST>
1

>  <SCORE.INTER.POLAR>
0

>  <SCORE.INTER.ROT>
3

>  <SCORE.INTER.SOLV>
18.3056

>  <SCORE.INTER.VDW>
-15.7101

>  <SCORE.INTER.norm>
-0.273287

>  <SCORE.INTRA>
-3.44325

>  <SCORE.INTRA.DIHEDRAL>
-6.22404

>  <SCORE.INTRA.DIHEDRAL.0>
7.18044

>  <SCORE.INTRA.POLAR>
0

>  <SCORE.INTRA.POLAR.0>
0

>  <SCORE.INTRA.REPUL>
0

>  <SCORE.INTRA.REPUL.0>
0

>  <SCORE.INTRA.SOLV>
-0.486011

>  <SCORE.INTRA.SOLV.lig_0>
-72.0615

>  <SCORE.INTRA.VDW>
-0.0882255

>  <SCORE.INTRA.VDW.0>
-1.54792

>  <SCORE.INTRA.norm>
-0.156511

>  <SCORE.RESTR>
0

>  <SCORE.RESTR.CAVITY>
0

>  <SCORE.RESTR.norm>
0

>  <SCORE.SYSTEM>
0

>  <SCORE.SYSTEM.CONST>
0

>  <SCORE.SYSTEM.DIHEDRAL>
0

>  <SCORE.SYSTEM.SOLV>
0

>  <SCORE.SYSTEM.norm>
0

>  <SCORE.heavy>
22

>  <SCORE.norm>
-0.429798

>  <RMSD>
6.664

$$$$
lig.pdb
 OpenBabel11021811523D
libRbt.so/2013.1/901 2013/11/27
 22 23  0  0  0  0  0  0  0  0999 V2000
   16.3048   -8.8807   27.1846 C   0  0  1  0  0  0  0  0  0  0  0  0
   16.2930  -11.0286   25.9058 C   0  0  1  0  0  0  0  0  0  0  0  0
   14.9433  -11.8100   26.4125 C   0  0  1  0  0  0  0  0  0  0  0  0
   15.1782  -13.3861   26.1760 C   0  0  2  0  0  0  0  0  0  0  0  0
   16.0980   -7.3018   27.0938 C   0  0  1  0  0  0  0  0  0  0  0  0
   17.3092   -6.6271   26.3394 C   0  0  2  0  0  0  0  0  0  0  0  0
   18.6489   -6.9073   27.1813 C   0  0  1  0  0  0  0  0  0  0  0  0
   18.9462   -8.4987   27.2438 C   0  0  1  0  0  0  0  0  0  0  0  0
   20.2343   -8.8644   28.0322 C   0  0  0  0  0  0  0  0  0  0  0  0
   15.3509  -13.6188   24.5955 C   0  0  1  0  0  0  0  0  0  0  0  0
   16.6754  -12.8255   24.1321 C   0  0  0  0  0  0  0  0  0  0  0  0
   16.5143  -11.2673   24.3929 C   0  0  2  0  0  0  0  0  0  0  0  0
   19.8239   -6.2921   26.5547 F   0  0  0  0  0  0  0  0  0  0  0  0
   14.7555   -7.1001   26.3750 N   0  0  0  0  0  0  0  0  0  0  0  0
   20.2210   -8.4674   29.3925 N   0  0  0  0  0  0  0  0  0  0  0  0
   15.5873  -15.0683   24.3048 N   0  0  0  0  0  0  0  0  0  0  0  0
   17.7141  -10.5386   23.9923 N   0  0  0  0  0  0  0  0  0  0  0  0
   16.1895   -9.6291   26.0404 O   0  0  0  0  0  0  0  0  0  0  0  0
   14.7812  -11.5555   27.8771 O   0  0  0  0  0  0  0  0  0  0  0  0
   14.0390  -14.0550   26.6006 O   0  0  0  0  0  0  0  0  0  0  0  0
   17.1075   -5.4679   26.3071 O   0  0  0  0  0  0  0  0  0  0  0  0
   17.6734   -9.1721   27.8802 O   0  0  0  0  0  0  0  0  0  0  0  0
  1  5  1  0  0  0  0
  1 18  1  6  0  0  0
  2 18  1  6  0  0  0
  2  3  1  0  0  0  0
  2 12  1  0  0  0  0
  3 19  1  1  0  0  0
  3  4  1  0  0  0  0
  4 20  1  6  0  0  0
  4 10  1  0  0  0  0
  5  6  1  0  0  0  0
  5 14  1  6  0  0  0
  6 21  1  1  0  0  0
  7 13  1  6  0  0  0
  7  6  1  0  0  0  0
  8  9  1  1  0  0  0
  8  7  1  0  0  0  0
 10 16  1  1  0  0  0
 11 10  1  0  0  0  0
 12 17  1  1  0  0  0
 12 11  1  0  0  0  0
 15  9  1  0  0  0  0
 22  8  1  0  0  0  0
 22  1  1  0  0  0  0
M  END
>  <CHROM.1>
-177.92984414,76.98235783,60.81618331,16.86448460,-9.86917670,26.38916840
1.10616709,-0.20394687,0.17669261

>  <Name>
lig.pdb

>  <RI>
0

>  <Rbt.Current_Directory>
/home/itssahil/PROJECTS/Mol_Feturizer/New_Systems/rnas/5bxk

>  <Rbt.Executable>
rbdock ($Id: //depot/dev/client3/rdock/2013.1/src/exe/rbdock.cxx#4 $)

>  <Rbt.Library>
libRbt.so (2013.1, Build901 2013/11/27)

>  <Rbt.Parameter_File>
/export/apps/rDock/src/rDock_2013.1_src/data/scripts/dock_solv.prm

>  <Rbt.Receptor>
prm/pocket_docking_3.prm

>  <SCORE>
-9.5899

>  <SCORE.INTER>
-6.43265

>  <SCORE.INTER.CONST>
1

>  <SCORE.INTER.POLAR>
0

>  <SCORE.INTER.ROT>
3

>  <SCORE.INTER.SOLV>
17.7424

>  <SCORE.INTER.VDW>
-15.8026

>  <SCORE.INTER.norm>
-0.292393

>  <SCORE.INTRA>
-3.15725

>  <SCORE.INTRA.DIHEDRAL>
-5.69026

>  <SCORE.INTRA.DIHEDRAL.0>
7.18044

>  <SCORE.INTRA.POLAR>
0

>  <SCORE.INTRA.POLAR.0>
0

>  <SCORE.INTRA.REPUL>
0

>  <SCORE.INTRA.REPUL.0>
0

>  <SCORE.INTRA.SOLV>
-0.34763

>  <SCORE.INTRA.SOLV.lig_0>
-72.0615

>  <SCORE.INTRA.VDW>
-0.138308

>  <SCORE.INTRA.VDW.0>
-1.54792

>  <SCORE.INTRA.norm>
-0.143511

>  <SCORE.RESTR>
0

>  <SCORE.RESTR.CAVITY>
0

>  <SCORE.RESTR.norm>
0

>  <SCORE.SYSTEM>
0

>  <SCORE.SYSTEM.CONST>
0

>  <SCORE.SYSTEM.DIHEDRAL>
0

>  <SCORE.SYSTEM.SOLV>
0

>  <SCORE.SYSTEM.norm>
0

>  <SCORE.heavy>
22

>  <SCORE.norm>
-0.435905

>  <RMSD>
6.667

$$$$
lig.pdb
 OpenBabel11021811523D
libRbt.so/2013.1/901 2013/11/27
 22 23  0  0  0  0  0  0  0  0999 V2000
   16.3719   -8.9185   27.1857 C   0  0  1  0  0  0  0  0  0  0  0  0
   16.3058  -11.0592   25.8967 C   0  0  1  0  0  0  0  0  0  0  0  0
   14.9529  -11.8318   26.4084 C   0  0  1  0  0  0  0  0  0  0  0  0
   15.1715  -13.4083   26.1593 C   0  0  2  0  0  0  0  0  0  0  0  0
   16.1401   -7.3419   27.1169 C   0  0  1  0  0  0  0  0  0  0  0  0
   17.3075   -6.6450   26.3151 C   0  0  2  0  0  0  0  0  0  0  0  0
   18.6869   -6.9130   27.0948 C   0  0  1  0  0  0  0  0  0  0  0  0
   19.0080   -8.5006   27.1313 C   0  0  1  0  0  0  0  0  0  0  0  0
   20.3345   -8.8544   27.8591 C   0  0  0  0  0  0  0  0  0  0  0  0
   15.3298  -13.6315   24.5759 C   0  0  1  0  0  0  0  0  0  0  0  0
   16.6580  -12.8471   24.1077 C   0  0  0  0  0  0  0  0  0  0  0  0
   16.5131  -11.2894   24.3805 C   0  0  2  0  0  0  0  0  0  0  0  0
   19.8246   -6.2770   26.4219 F   0  0  0  0  0  0  0  0  0  0  0  0
   14.7646   -7.1534   26.4596 N   0  0  0  0  0  0  0  0  0  0  0  0
   20.4081   -8.3964   29.1981 N   0  0  0  0  0  0  0  0  0  0  0  0
   15.5507  -15.0811   24.2734 N   0  0  0  0  0  0  0  0  0  0  0  0
   17.7164  -10.5688   23.9755 N   0  0  0  0  0  0  0  0  0  0  0  0
   16.2161   -9.6598   26.0417 O   0  0  0  0  0  0  0  0  0  0  0  0
   14.8045  -11.5861   27.8760 O   0  0  0  0  0  0  0  0  0  0  0  0
   14.0296  -14.0697   26.5881 O   0  0  0  0  0  0  0  0  0  0  0  0
   17.0892   -5.4885   26.3011 O   0  0  0  0  0  0  0  0  0  0  0  0
   17.7738   -9.1962   27.8178 O   0  0  0  0  0  0  0  0  0  0  0  0
  1  5  1  0  0  0  0
  1 18  1  6  0  0  0
  2 18  1  6  0  0  0
  2  3  1  0  0  0  0
  2 12  1  0  0  0  0
  3 19  1  1  0  0  0
  3  4  1  0  0  0  0
  4 20  1  6  0  0  0
  4 10  1  0  0  0  0
  5  6  1  0  0  0  0
  5 14  1  6  0  0  0
  6 21  1  1  0  0  0
  7 13  1  6  0  0  0
  7  6  1  0  0  0  0
  8  9  1  1  0  0  0
  8  7  1  0  0  0  0
 10 16  1  1  0  0  0
 11 10  1  0  0  0  0
 12 17  1  1  0  0  0
 12 11  1  0  0  0  0
 15  9  1  0  0  0  0
 22  8  1  0  0  0  0
 22  1  1  0  0  0  0
M  END
>  <CHROM.1>
-176.52755634,78.31920869,57.18593788,16.89008684,-9.88492115,26.35024290
1.10320543,-0.10536731,0.21502992

>  <Name>
lig.pdb

>  <RI>
0

>  <Rbt.Current_Directory>
/home/itssahil/PROJECTS/Mol_Feturizer/New_Systems/rnas/5bxk

>  <Rbt.Executable>
rbdock ($Id: //depot/dev/client3/rdock/2013.1/src/exe/rbdock.cxx#4 $)

>  <Rbt.Library>
libRbt.so (2013.1, Build901 2013/11/27)

>  <Rbt.Parameter_File>
/export/apps/rDock/src/rDock_2013.1_src/data/scripts/dock_solv.prm

>  <Rbt.Receptor>
prm/pocket_docking_3.prm

>  <SCORE>
-9.56116

>  <SCORE.INTER>
-6.57144

>  <SCORE.INTER.CONST>
1

>  <SCORE.INTER.POLAR>
0

>  <SCORE.INTER.ROT>
3

>  <SCORE.INTER.SOLV>
17.8251

>  <SCORE.INTER.VDW>
-15.9226

>  <SCORE.INTER.norm>
-0.298702

>  <SCORE.INTRA>
-2.99159

>  <SCORE.INTRA.DIHEDRAL>
-5.42696

>  <SCORE.INTRA.DIHEDRAL.0>
7.18044

>  <SCORE.INTRA.POLAR>
0

>  <SCORE.INTRA.POLAR.0>
0

>  <SCORE.INTRA.REPUL>
0

>  <SCORE.INTRA.REPUL.0>
0

>  <SCORE.INTRA.SOLV>
-0.270383

>  <SCORE.INTRA.SOLV.lig_0>
-72.0615

>  <SCORE.INTRA.VDW>
-0.14292

>  <SCORE.INTRA.VDW.0>
-1.54792

>  <SCORE.INTRA.norm>
-0.135981

>  <SCORE.RESTR>
0.00187938

>  <SCORE.RESTR.CAVITY>
0.00187938

>  <SCORE.RESTR.norm>
8.54264e-05

>  <SCORE.SYSTEM>
0

>  <SCORE.SYSTEM.CONST>
0

>  <SCORE.SYSTEM.DIHEDRAL>
0

>  <SCORE.SYSTEM.SOLV>
0

>  <SCORE.SYSTEM.norm>
0

>  <SCORE.heavy>
22

>  <SCORE.norm>
-0.434598

>  <RMSD>
6.669

$$$$
lig.pdb
 OpenBabel11021811523D
libRbt.so/2013.1/901 2013/11/27
 22 23  0  0  0  0  0  0  0  0999 V2000
   16.3415   -8.9230   27.1966 C   0  0  1  0  0  0  0  0  0  0  0  0
   16.2826  -11.0547   25.8924 C   0  0  1  0  0  0  0  0  0  0  0  0
   14.9307  -11.8391   26.3888 C   0  0  1  0  0  0  0  0  0  0  0  0
   15.1599  -13.4122   26.1282 C   0  0  2  0  0  0  0  0  0  0  0  0
   16.0863   -7.3495   27.1436 C   0  0  1  0  0  0  0  0  0  0  0  0
   17.2348   -6.6291   26.3353 C   0  0  2  0  0  0  0  0  0  0  0  0
   18.6262   -6.8835   27.0978 C   0  0  1  0  0  0  0  0  0  0  0  0
   18.9705   -8.4665   27.1175 C   0  0  1  0  0  0  0  0  0  0  0  0
   20.3098   -8.8071   27.8280 C   0  0  0  0  0  0  0  0  0  0  0  0
   15.3299  -13.6215   24.5442 C   0  0  1  0  0  0  0  0  0  0  0  0
   16.6566  -12.8259   24.0912 C   0  0  0  0  0  0  0  0  0  0  0  0
   16.5011  -11.2713   24.3757 C   0  0  2  0  0  0  0  0  0  0  0  0
   19.7473   -6.2256   26.4181 F   0  0  0  0  0  0  0  0  0  0  0  0
   14.7011   -7.1755   26.5028 N   0  0  0  0  0  0  0  0  0  0  0  0
   20.3715   -8.4048   29.1854 N   0  0  0  0  0  0  0  0  0  0  0  0
   15.5610  -15.0673   24.2313 N   0  0  0  0  0  0  0  0  0  0  0  0
   17.7030  -10.5406   23.9847 N   0  0  0  0  0  0  0  0  0  0  0  0
   16.1840   -9.6571   26.0482 O   0  0  0  0  0  0  0  0  0  0  0  0
   14.7713  -11.6062   27.8574 O   0  0  0  0  0  0  0  0  0  0  0  0
   14.0189  -14.0835   26.5441 O   0  0  0  0  0  0  0  0  0  0  0  0
   16.9996   -5.4758   26.3333 O   0  0  0  0  0  0  0  0  0  0  0  0
   17.7539   -9.1856   27.8113 O   0  0  0  0  0  0  0  0  0  0  0  0
  1  5  1  0  0  0  0
  1 18  1  6  0  0  0
  2 18  1  6  0  0  0
  2  3  1  0  0  0  0
  2 12  1  0  0  0  0
  3 19  1  1  0  0  0
  3  4  1  0  0  0  0
  4 20  1  6  0  0  0
  4 10  1  0  0  0  0
  5  6  1  0  0  0  0
  5 14  1  6  0  0  0
  6 21  1  1  0  0  0
  7 13  1  6  0  0  0
  7  6  1  0  0  0  0
  8  9  1  1  0  0  0
  8  7  1  0  0  0  0
 10 16  1  1  0  0  0
 11 10  1  0  0  0  0
 12 17  1  1  0  0  0
 12 11  1  0  0  0  0
 15  9  1  0  0  0  0
 22  8  1  0  0  0  0
 22  1  1  0  0  0  0
M  END
>  <CHROM.1>
-176.01624364,79.04665800,59.49959852,16.85666192,-9.87491985,26.34437352
1.11210669,-0.08133588,0.23158005

>  <Name>
lig.pdb

>  <RI>
0

>  <Rbt.Current_Directory>
/home/itssahil/PROJECTS/Mol_Feturizer/New_Systems/rnas/5bxk

>  <Rbt.Executable>
rbdock ($Id: //depot/dev/client3/rdock/2013.1/src/exe/rbdock.cxx#4 $)

>  <Rbt.Library>
libRbt.so (2013.1, Build901 2013/11/27)

>  <Rbt.Parameter_File>
/export/apps/rDock/src/rDock_2013.1_src/data/scripts/dock_solv.prm

>  <Rbt.Receptor>
prm/pocket_docking_3.prm

>  <SCORE>
-9.52195

>  <SCORE.INTER>
-6.57433

>  <SCORE.INTER.CONST>
1

>  <SCORE.INTER.POLAR>
0

>  <SCORE.INTER.ROT>
3

>  <SCORE.INTER.SOLV>
17.7682

>  <SCORE.INTER.VDW>
-15.9056

>  <SCORE.INTER.norm>
-0.298833

>  <SCORE.INTRA>
-2.94761

>  <SCORE.INTRA.DIHEDRAL>
-5.32244

>  <SCORE.INTRA.DIHEDRAL.0>
7.18044

>  <SCORE.INTRA.POLAR>
0

>  <SCORE.INTRA.POLAR.0>
0

>  <SCORE.INTRA.REPUL>
0

>  <SCORE.INTRA.REPUL.0>
0

>  <SCORE.INTRA.SOLV>
-0.265115

>  <SCORE.INTRA.SOLV.lig_0>
-72.0615

>  <SCORE.INTRA.VDW>
-0.153836

>  <SCORE.INTRA.VDW.0>
-1.54792

>  <SCORE.INTRA.norm>
-0.133982

>  <SCORE.RESTR>
0

>  <SCORE.RESTR.CAVITY>
0

>  <SCORE.RESTR.norm>
0

>  <SCORE.SYSTEM>
0

>  <SCORE.SYSTEM.CONST>
0

>  <SCORE.SYSTEM.DIHEDRAL>
0

>  <SCORE.SYSTEM.SOLV>
0

>  <SCORE.SYSTEM.norm>
0

>  <SCORE.heavy>
22

>  <SCORE.norm>
-0.432816

>  <RMSD>
6.671

$$$$
lig.pdb
 OpenBabel11021811523D
libRbt.so/2013.1/901 2013/11/27
 22 23  0  0  0  0  0  0  0  0999 V2000
   13.5572   -8.4636   27.1072 C   0  0  1  0  0  0  0  0  0  0  0  0
   15.4677   -9.6603   26.0273 C   0  0  1  0  0  0  0  0  0  0  0  0
   14.7355  -11.0862   25.6813 C   0  0  1  0  0  0  0  0  0  0  0  0
   15.8908  -12.1964   25.5147 C   0  0  2  0  0  0  0  0  0  0  0  0
   12.7643   -7.0821   27.1906 C   0  0  1  0  0  0  0  0  0  0  0  0
   13.6925   -5.9449   27.7706 C   0  0  2  0  0  0  0  0  0  0  0  0
   14.1300   -6.3598   29.2602 C   0  0  1  0  0  0  0  0  0  0  0  0
   15.0032   -7.7240   29.2259 C   0  0  1  0  0  0  0  0  0  0  0  0
   15.4810   -8.1968   30.6268 C   0  0  0  0  0  0  0  0  0  0  0  0
   16.8024  -11.7636   24.2642 C   0  0  1  0  0  0  0  0  0  0  0  0
   17.4920  -10.3542   24.6337 C   0  0  0  0  0  0  0  0  0  0  0  0
   16.3892   -9.2340   24.8594 C   0  0  2  0  0  0  0  0  0  0  0  0
   14.9820   -5.3397   29.8809 F   0  0  0  0  0  0  0  0  0  0  0  0
   12.2833   -6.7933   25.7605 N   0  0  0  0  0  0  0  0  0  0  0  0
   14.4333   -8.5068   31.5292 N   0  0  0  0  0  0  0  0  0  0  0  0
   17.9099  -12.7502   24.0603 N   0  0  0  0  0  0  0  0  0  0  0  0
   17.0001   -7.9555   25.2107 N   0  0  0  0  0  0  0  0  0  0  0  0
   14.5481   -8.6011   26.1682 O   0  0  0  0  0  0  0  0  0  0  0  0
   13.8673  -11.4562   26.8414 O   0  0  0  0  0  0  0  0  0  0  0  0
   15.2793  -13.4066   25.2197 O   0  0  0  0  0  0  0  0  0  0  0  0
   13.0575   -4.9549   27.8152 O   0  0  0  0  0  0  0  0  0  0  0  0
   14.1102   -8.8153   28.5258 O   0  0  0  0  0  0  0  0  0  0  0  0
  1  5  1  0  0  0  0
  1 18  1  6  0  0  0
  2 18  1  6  0  0  0
  2  3  1  0  0  0  0
  2 12  1  0  0  0  0
  3 19  1  1  0  0  0
  3  4  1  0  0  0  0
  4 20  1  6  0  0  0
  4 10  1  0  0  0  0
  5  6  1  0  0  0  0
  5 14  1  6  0  0  0
  6 21  1  1  0  0  0
  7 13  1  6  0  0  0
  7  6  1  0  0  0  0
  8  9  1  1  0  0  0
  8  7  1  0  0  0  0
 10 16  1  1  0  0  0
 11 10  1  0  0  0  0
 12 17  1  1  0  0  0
 12 11  1  0  0  0  0
 15  9  1  0  0  0  0
 22  8  1  0  0  0  0
 22  1  1  0  0  0  0
M  END
>  <CHROM.1>
171.81252666,63.37371996,61.76669571,14.92829143,-8.89691332,27.01608680
2.67553678,-1.19612005,1.73691261

>  <Name>
lig.pdb

>  <RI>
0

>  <Rbt.Current_Directory>
/home/itssahil/PROJECTS/Mol_Feturizer/New_Systems/rnas/5bxk

>  <Rbt.Executable>
rbdock ($Id: //depot/dev/client3/rdock/2013.1/src/exe/rbdock.cxx#4 $)

>  <Rbt.Library>
libRbt.so (2013.1, Build901 2013/11/27)

>  <Rbt.Parameter_File>
/export/apps/rDock/src/rDock_2013.1_src/data/scripts/dock_solv.prm

>  <Rbt.Receptor>
prm/pocket_docking_5.prm

>  <SCORE>
-10.1151

>  <SCORE.INTER>
-6.37619

>  <SCORE.INTER.CONST>
1

>  <SCORE.INTER.POLAR>
0

>  <SCORE.INTER.ROT>
3

>  <SCORE.INTER.SOLV>
13.9272

>  <SCORE.INTER.VDW>
-14.4932

>  <SCORE.INTER.norm>
-0.289827

>  <SCORE.INTRA>
-3.7389

>  <SCORE.INTRA.DIHEDRAL>
-6.66374

>  <SCORE.INTRA.DIHEDRAL.0>
7.18044

>  <SCORE.INTRA.POLAR>
0

>  <SCORE.INTRA.POLAR.0>
0

>  <SCORE.INTRA.REPUL>
0

>  <SCORE.INTRA.REPUL.0>
0

>  <SCORE.INTRA.SOLV>
-0.728457

>  <SCORE.INTRA.SOLV.lig_0>
-72.0615

>  <SCORE.INTRA.VDW>
-0.0428018

>  <SCORE.INTRA.VDW.0>
-1.54792

>  <SCORE.INTRA.norm>
-0.16995

>  <SCORE.RESTR>
0

>  <SCORE.RESTR.CAVITY>
0

>  <SCORE.RESTR.norm>
0

>  <SCORE.SYSTEM>
0

>  <SCORE.SYSTEM.CONST>
0

>  <SCORE.SYSTEM.DIHEDRAL>
0

>  <SCORE.SYSTEM.SOLV>
0

>  <SCORE.SYSTEM.norm>
0

>  <SCORE.heavy>
22

>  <SCORE.norm>
-0.459777

>  <RMSD>
6.671

$$$$
lig.pdb
 OpenBabel11021811523D
libRbt.so/2013.1/901 2013/11/27
 22 23  0  0  0  0  0  0  0  0999 V2000
   16.2325   -8.8488   27.0160 C   0  0  1  0  0  0  0  0  0  0  0  0
   16.2813  -11.0282   25.7928 C   0  0  1  0  0  0  0  0  0  0  0  0
   14.9475  -11.8203   26.3243 C   0  0  1  0  0  0  0  0  0  0  0  0
   15.2111  -13.3977   26.1302 C   0  0  2  0  0  0  0  0  0  0  0  0
   16.0396   -7.2718   26.8750 C   0  0  1  0  0  0  0  0  0  0  0  0
   17.2808   -6.6251   26.1451 C   0  0  2  0  0  0  0  0  0  0  0  0
   18.5885   -6.8897   27.0407 C   0  0  1  0  0  0  0  0  0  0  0  0
   18.8728   -8.4804   27.1570 C   0  0  1  0  0  0  0  0  0  0  0  0
   20.1302   -8.8317   27.9997 C   0  0  0  0  0  0  0  0  0  0  0  0
   15.3845  -13.6702   24.5561 C   0  0  1  0  0  0  0  0  0  0  0  0
   16.6930  -12.8655   24.0676 C   0  0  0  0  0  0  0  0  0  0  0  0
   16.5035  -11.3040   24.2863 C   0  0  2  0  0  0  0  0  0  0  0  0
   19.7886   -6.2987   26.4389 F   0  0  0  0  0  0  0  0  0  0  0  0
   14.7243   -7.0823   26.1044 N   0  0  0  0  0  0  0  0  0  0  0  0
   20.0679   -8.4062   29.3500 N   0  0  0  0  0  0  0  0  0  0  0  0
   15.6471  -15.1225   24.3045 N   0  0  0  0  0  0  0  0  0  0  0  0
   17.6886  -10.5643   23.8626 N   0  0  0  0  0  0  0  0  0  0  0  0
   16.1520   -9.6277   25.8894 O   0  0  0  0  0  0  0  0  0  0  0  0
   14.7840  -11.5289   27.7819 O   0  0  0  0  0  0  0  0  0  0  0  0
   14.0855  -14.0757   26.5761 O   0  0  0  0  0  0  0  0  0  0  0  0
   17.0882   -5.4661   26.0741 O   0  0  0  0  0  0  0  0  0  0  0  0
   17.5741   -9.1287   27.7667 O   0  0  0  0  0  0  0  0  0  0  0  0
  1  5  1  0  0  0  0
  1 18  1  6  0  0  0
  2 18  1  6  0  0  0
  2  3  1  0  0  0  0
  2 12  1  0  0  0  0
  3 19  1  1  0  0  0
  3  4  1  0  0  0  0
  4 20  1  6  0  0  0
  4 10  1  0  0  0  0
  5  6  1  0  0  0  0
  5 14  1  6  0  0  0
  6 21  1  1  0  0  0
  7 13  1  6  0  0  0
  7  6  1  0  0  0  0
  8  9  1  1  0  0  0
  8  7  1  0  0  0  0
 10 16  1  1  0  0  0
 11 10  1  0  0  0  0
 12 17  1  1  0  0  0
 12 11  1  0  0  0  0
 15  9  1  0  0  0  0
 22  8  1  0  0  0  0
 22  1  1  0  0  0  0
M  END
>  <CHROM.1>
-179.51997916,75.71550523,61.27416491,16.83614706,-9.86766245,26.27651176
1.10974409,-0.30295386,0.11453573

>  <Name>
lig.pdb

>  <RI>
0

>  <Rbt.Current_Directory>
/home/itssahil/PROJECTS/Mol_Feturizer/New_Systems/rnas/5bxk

>  <Rbt.Executable>
rbdock ($Id: //depot/dev/client3/rdock/2013.1/src/exe/rbdock.cxx#4 $)

>  <Rbt.Library>
libRbt.so (2013.1, Build901 2013/11/27)

>  <Rbt.Parameter_File>
/export/apps/rDock/src/rDock_2013.1_src/data/scripts/dock_solv.prm

>  <Rbt.Receptor>
prm/pocket_docking_5.prm

>  <SCORE>
-9.76789

>  <SCORE.INTER>
-6.50007

>  <SCORE.INTER.CONST>
1

>  <SCORE.INTER.POLAR>
0

>  <SCORE.INTER.ROT>
3

>  <SCORE.INTER.SOLV>
18.2039

>  <SCORE.INTER.VDW>
-16.0014

>  <SCORE.INTER.norm>
-0.295458

>  <SCORE.INTRA>
-3.26782

>  <SCORE.INTRA.DIHEDRAL>
-5.88626

>  <SCORE.INTRA.DIHEDRAL.0>
7.18044

>  <SCORE.INTRA.POLAR>
0

>  <SCORE.INTRA.POLAR.0>
0

>  <SCORE.INTRA.REPUL>
0

>  <SCORE.INTRA.REPUL.0>
0

>  <SCORE.INTRA.SOLV>
-0.392792

>  <SCORE.INTRA.SOLV.lig_0>
-72.0615

>  <SCORE.INTRA.VDW>
-0.128298

>  <SCORE.INTRA.VDW.0>
-1.54792

>  <SCORE.INTRA.norm>
-0.148537

>  <SCORE.RESTR>
0

>  <SCORE.RESTR.CAVITY>
0

>  <SCORE.RESTR.norm>
0

>  <SCORE.SYSTEM>
0

>  <SCORE.SYSTEM.CONST>
0

>  <SCORE.SYSTEM.DIHEDRAL>
0

>  <SCORE.SYSTEM.SOLV>
0

>  <SCORE.SYSTEM.norm>
0

>  <SCORE.heavy>
22

>  <SCORE.norm>
-0.443995

>  <RMSD>
6.672

$$$$
lig.pdb
 OpenBabel11021811523D
libRbt.so/2013.1/901 2013/11/27
 22 23  0  0  0  0  0  0  0  0999 V2000
   13.5460   -8.5911   27.0332 C   0  0  1  0  0  0  0  0  0  0  0  0
   15.4438   -9.8164   25.9629 C   0  0  1  0  0  0  0  0  0  0  0  0
   14.7176  -11.2531   25.6502 C   0  0  1  0  0  0  0  0  0  0  0  0
   15.8778  -12.3616   25.5073 C   0  0  2  0  0  0  0  0  0  0  0  0
   12.7860   -7.1913   27.1170 C   0  0  1  0  0  0  0  0  0  0  0  0
   13.7483   -6.0712   27.6744 C   0  0  2  0  0  0  0  0  0  0  0  0
   14.1982   -6.4845   29.1607 C   0  0  1  0  0  0  0  0  0  0  0  0
   15.0395   -7.8686   29.1246 C   0  0  1  0  0  0  0  0  0  0  0  0
   15.5271   -8.3414   30.5221 C   0  0  0  0  0  0  0  0  0  0  0  0
   16.7860  -11.9531   24.2462 C   0  0  1  0  0  0  0  0  0  0  0  0
   17.4696  -10.5326   24.5829 C   0  0  0  0  0  0  0  0  0  0  0  0
   16.3620   -9.4125   24.7845 C   0  0  2  0  0  0  0  0  0  0  0  0
   15.0822   -5.4795   29.7607 F   0  0  0  0  0  0  0  0  0  0  0  0
   12.2907   -6.9025   25.6919 N   0  0  0  0  0  0  0  0  0  0  0  0
   14.4883   -8.5689   31.4587 N   0  0  0  0  0  0  0  0  0  0  0  0
   17.8977  -12.9390   24.0634 N   0  0  0  0  0  0  0  0  0  0  0  0
   16.9676   -8.1237   25.1062 N   0  0  0  0  0  0  0  0  0  0  0  0
   14.5195   -8.7585   26.0810 O   0  0  0  0  0  0  0  0  0  0  0  0
   13.8524  -11.6006   26.8194 O   0  0  0  0  0  0  0  0  0  0  0  0
   15.2714  -13.5808   25.2404 O   0  0  0  0  0  0  0  0  0  0  0  0
   13.1368   -5.0666   27.7202 O   0  0  0  0  0  0  0  0  0  0  0  0
   14.1117   -8.9445   28.4463 O   0  0  0  0  0  0  0  0  0  0  0  0
  1  5  1  0  0  0  0
  1 18  1  6  0  0  0
  2 18  1  6  0  0  0
  2  3  1  0  0  0  0
  2 12  1  0  0  0  0
  3 19  1  1  0  0  0
  3  4  1  0  0  0  0
  4 20  1  6  0  0  0
  4 10  1  0  0  0  0
  5  6  1  0  0  0  0
  5 14  1  6  0  0  0
  6 21  1  1  0  0  0
  7 13  1  6  0  0  0
  7  6  1  0  0  0  0
  8  9  1  1  0  0  0
  8  7  1  0  0  0  0
 10 16  1  1  0  0  0
 11 10  1  0  0  0  0
 12 17  1  1  0  0  0
 12 11  1  0  0  0  0
 15  9  1  0  0  0  0
 22  8  1  0  0  0  0
 22  1  1  0  0  0  0
M  END
>  <CHROM.1>
169.35629269,64.76821995,59.36056637,14.94074257,-9.04195020,26.95101988
2.65180934,-1.20186562,1.69632523

>  <Name>
lig.pdb

>  <RI>
0

>  <Rbt.Current_Directory>
/home/itssahil/PROJECTS/Mol_Feturizer/New_Systems/rnas/5bxk

>  <Rbt.Executable>
rbdock ($Id: //depot/dev/client3/rdock/2013.1/src/exe/rbdock.cxx#4 $)

>  <Rbt.Library>
libRbt.so (2013.1, Build901 2013/11/27)

>  <Rbt.Parameter_File>
/export/apps/rDock/src/rDock_2013.1_src/data/scripts/dock_solv.prm

>  <Rbt.Receptor>
prm/pocket_docking_5.prm

>  <SCORE>
-10.169

>  <SCORE.INTER>
-6.5668

>  <SCORE.INTER.CONST>
1

>  <SCORE.INTER.POLAR>
0

>  <SCORE.INTER.ROT>
3

>  <SCORE.INTER.SOLV>
14.5612

>  <SCORE.INTER.VDW>
-14.8316

>  <SCORE.INTER.norm>
-0.298491

>  <SCORE.INTRA>
-3.60224

>  <SCORE.INTRA.DIHEDRAL>
-6.40766

>  <SCORE.INTRA.DIHEDRAL.0>
7.18044

>  <SCORE.INTRA.POLAR>
0

>  <SCORE.INTRA.POLAR.0>
0

>  <SCORE.INTRA.REPUL>
0

>  <SCORE.INTRA.REPUL.0>
0

>  <SCORE.INTRA.SOLV>
-0.68855

>  <SCORE.INTRA.SOLV.lig_0>
-72.0615

>  <SCORE.INTRA.VDW>
-0.0541369

>  <SCORE.INTRA.VDW.0>
-1.54792

>  <SCORE.INTRA.norm>
-0.163738

>  <SCORE.RESTR>
0

>  <SCORE.RESTR.CAVITY>
0

>  <SCORE.RESTR.norm>
0

>  <SCORE.SYSTEM>
0

>  <SCORE.SYSTEM.CONST>
0

>  <SCORE.SYSTEM.DIHEDRAL>
0

>  <SCORE.SYSTEM.SOLV>
0

>  <SCORE.SYSTEM.norm>
0

>  <SCORE.heavy>
22

>  <SCORE.norm>
-0.462229

>  <RMSD>
6.675

$$$$
lig.pdb
 OpenBabel11021811523D
libRbt.so/2013.1/901 2013/11/27
 22 23  0  0  0  0  0  0  0  0999 V2000
   14.6294   -7.0937   26.5241 C   0  0  1  0  0  0  0  0  0  0  0  0
   15.3591   -9.4264   26.0001 C   0  0  1  0  0  0  0  0  0  0  0  0
   14.6430  -10.8758   25.7250 C   0  0  1  0  0  0  0  0  0  0  0  0
   15.8077  -11.9866   25.6567 C   0  0  2  0  0  0  0  0  0  0  0  0
   13.8871   -6.6467   27.8632 C   0  0  1  0  0  0  0  0  0  0  0  0
   12.3379   -6.4828   27.6094 C   0  0  2  0  0  0  0  0  0  0  0  0
   12.1244   -5.3289   26.5116 C   0  0  1  0  0  0  0  0  0  0  0  0
   12.7999   -5.7650   25.1050 C   0  0  1  0  0  0  0  0  0  0  0  0
   12.6326   -4.7099   23.9766 C   0  0  0  0  0  0  0  0  0  0  0  0
   16.7487  -11.6261   24.4050 C   0  0  1  0  0  0  0  0  0  0  0  0
   17.4216  -10.1921   24.7036 C   0  0  0  0  0  0  0  0  0  0  0  0
   16.3079   -9.0673   24.8316 C   0  0  2  0  0  0  0  0  0  0  0  0
   10.7027   -5.0991   26.2332 F   0  0  0  0  0  0  0  0  0  0  0  0
   14.2141   -7.7317   28.9004 N   0  0  0  0  0  0  0  0  0  0  0  0
   13.2986   -5.0339   22.7684 N   0  0  0  0  0  0  0  0  0  0  0  0
   17.8659  -12.6162   24.2907 N   0  0  0  0  0  0  0  0  0  0  0  0
   16.9034   -7.7656   25.1182 N   0  0  0  0  0  0  0  0  0  0  0  0
   14.4310   -8.3666   26.0519 O   0  0  0  0  0  0  0  0  0  0  0  0
   13.7474  -11.1789   26.8836 O   0  0  0  0  0  0  0  0  0  0  0  0
   15.2099  -13.2167   25.4220 O   0  0  0  0  0  0  0  0  0  0  0  0
   11.8442   -6.1480   28.6240 O   0  0  0  0  0  0  0  0  0  0  0  0
   14.3192   -6.0512   25.4021 O   0  0  0  0  0  0  0  0  0  0  0  0
  1  5  1  0  0  0  0
  1 18  1  6  0  0  0
  2 18  1  6  0  0  0
  2  3  1  0  0  0  0
  2 12  1  0  0  0  0
  3 19  1  1  0  0  0
  3  4  1  0  0  0  0
  4 20  1  6  0  0  0
  4 10  1  0  0  0  0
  5  6  1  0  0  0  0
  5 14  1  1  0  0  0
  6 21  1  1  0  0  0
  7 13  1  6  0  0  0
  7  6  1  0  0  0  0
  8  9  1  6  0  0  0
  8  7  1  0  0  0  0
 10 16  1  1  0  0  0
 11 10  1  0  0  0  0
 12 17  1  1  0  0  0
 12 11  1  0  0  0  0
 15  9  1  0  0  0  0
 22  8  1  0  0  0  0
 22  1  1  0  0  0  0
M  END
>  <CHROM.1>
-111.36580271,165.50548648,175.75611147,14.34304323,-8.25828661,25.86621796
2.55348888,0.86565973,-0.68079663

>  <Name>
lig.pdb

>  <RI>
0

>  <Rbt.Current_Directory>
/home/itssahil/PROJECTS/Mol_Feturizer/New_Systems/rnas/5bxk

>  <Rbt.Executable>
rbdock ($Id: //depot/dev/client3/rdock/2013.1/src/exe/rbdock.cxx#4 $)

>  <Rbt.Library>
libRbt.so (2013.1, Build901 2013/11/27)

>  <Rbt.Parameter_File>
/export/apps/rDock/src/rDock_2013.1_src/data/scripts/dock_solv.prm

>  <Rbt.Receptor>
prm/pocket_docking_7.prm

>  <SCORE>
-6.90197

>  <SCORE.INTER>
-8.03983

>  <SCORE.INTER.CONST>
1

>  <SCORE.INTER.POLAR>
0

>  <SCORE.INTER.ROT>
3

>  <SCORE.INTER.SOLV>
15.4511

>  <SCORE.INTER.VDW>
-16.1102

>  <SCORE.INTER.norm>
-0.365447

>  <SCORE.INTRA>
1.13786

>  <SCORE.INTRA.DIHEDRAL>
0.58999

>  <SCORE.INTRA.DIHEDRAL.0>
7.18044

>  <SCORE.INTRA.POLAR>
0

>  <SCORE.INTRA.POLAR.0>
0

>  <SCORE.INTRA.REPUL>
0

>  <SCORE.INTRA.REPUL.0>
0

>  <SCORE.INTRA.SOLV>
0.394845

>  <SCORE.INTRA.SOLV.lig_0>
-72.0615

>  <SCORE.INTRA.VDW>
0.645448

>  <SCORE.INTRA.VDW.0>
-1.54792

>  <SCORE.INTRA.norm>
0.0517211

>  <SCORE.RESTR>
0

>  <SCORE.RESTR.CAVITY>
0

>  <SCORE.RESTR.norm>
0

>  <SCORE.SYSTEM>
0

>  <SCORE.SYSTEM.CONST>
0

>  <SCORE.SYSTEM.DIHEDRAL>
0

>  <SCORE.SYSTEM.SOLV>
0

>  <SCORE.SYSTEM.norm>
0

>  <SCORE.heavy>
22

>  <SCORE.norm>
-0.313726

>  <RMSD>
6.675

$$$$
lig.pdb
 OpenBabel11021811523D
libRbt.so/2013.1/901 2013/11/27
 22 23  0  0  0  0  0  0  0  0999 V2000
   16.0019   -7.3576   26.9437 C   0  0  1  0  0  0  0  0  0  0  0  0
   15.8920   -9.6470   25.9464 C   0  0  1  0  0  0  0  0  0  0  0  0
   16.8684  -10.6092   25.0462 C   0  0  1  0  0  0  0  0  0  0  0  0
   16.0019  -11.8887   24.5911 C   0  0  2  0  0  0  0  0  0  0  0  0
   15.3350   -6.3076   25.9453 C   0  0  1  0  0  0  0  0  0  0  0  0
   16.4421   -5.5747   25.0919 C   0  0  2  0  0  0  0  0  0  0  0  0
   17.4030   -4.7677   26.0958 C   0  0  1  0  0  0  0  0  0  0  0  0
   18.1632   -5.7973   27.0892 C   0  0  1  0  0  0  0  0  0  0  0  0
   19.1262   -5.1037   28.0922 C   0  0  0  0  0  0  0  0  0  0  0  0
   15.5735  -12.6821   25.9211 C   0  0  1  0  0  0  0  0  0  0  0  0
   14.6298  -11.7022   26.7856 C   0  0  0  0  0  0  0  0  0  0  0  0
   15.4247  -10.3968   27.2169 C   0  0  2  0  0  0  0  0  0  0  0  0
   18.4522   -4.0380   25.3758 F   0  0  0  0  0  0  0  0  0  0  0  0
   14.3534   -7.1185   25.0859 N   0  0  0  0  0  0  0  0  0  0  0  0
   19.7760   -5.9889   28.9878 N   0  0  0  0  0  0  0  0  0  0  0  0
   14.7498  -13.8819   25.5698 N   0  0  0  0  0  0  0  0  0  0  0  0
   14.5760   -9.4927   27.9873 N   0  0  0  0  0  0  0  0  0  0  0  0
   16.5573   -8.5006   26.4264 O   0  0  0  0  0  0  0  0  0  0  0  0
   17.2826   -9.8433   23.8305 O   0  0  0  0  0  0  0  0  0  0  0  0
   16.8219  -12.7095   23.8300 O   0  0  0  0  0  0  0  0  0  0  0  0
   15.8967   -4.8116   24.3808 O   0  0  0  0  0  0  0  0  0  0  0  0
   17.0441   -6.6126   27.8386 O   0  0  0  0  0  0  0  0  0  0  0  0
  1  5  1  0  0  0  0
  1 18  1  6  0  0  0
  2 18  1  1  0  0  0
  2  3  1  0  0  0  0
  2 12  1  0  0  0  0
  3 19  1  6  0  0  0
  3  4  1  0  0  0  0
  4 20  1  6  0  0  0
  4 10  1  0  0  0  0
  5  6  1  0  0  0  0
  5 14  1  6  0  0  0
  6 21  1  6  0  0  0
  7 13  1  6  0  0  0
  7  6  1  0  0  0  0
  8  9  1  1  0  0  0
  8  7  1  0  0  0  0
 10 16  1  6  0  0  0
 11 10  1  0  0  0  0
 12 17  1  6  0  0  0
 12 11  1  0  0  0  0
 15  9  1  0  0  0  0
 22  8  1  0  0  0  0
 22  1  1  0  0  0  0
M  END
>  <CHROM.1>
-75.65360212,164.26639068,178.65885289,16.51604036,-8.33173036,26.06002215
-0.78743703,1.14695251,2.56269314

>  <Name>
lig.pdb

>  <RI>
0

>  <Rbt.Current_Directory>
/home/itssahil/PROJECTS/Mol_Feturizer/New_Systems/rnas/5bxk

>  <Rbt.Executable>
rbdock ($Id: //depot/dev/client3/rdock/2013.1/src/exe/rbdock.cxx#4 $)

>  <Rbt.Library>
libRbt.so (2013.1, Build901 2013/11/27)

>  <Rbt.Parameter_File>
/export/apps/rDock/src/rDock_2013.1_src/data/scripts/dock_solv.prm

>  <Rbt.Receptor>
prm/pocket_docking_5.prm

>  <SCORE>
-5.99611

>  <SCORE.INTER>
-4.9066

>  <SCORE.INTER.CONST>
1

>  <SCORE.INTER.POLAR>
0

>  <SCORE.INTER.ROT>
3

>  <SCORE.INTER.SOLV>
15.6823

>  <SCORE.INTER.VDW>
-14.0985

>  <SCORE.INTER.norm>
-0.223027

>  <SCORE.INTRA>
-1.08951

>  <SCORE.INTRA.DIHEDRAL>
-4.78442

>  <SCORE.INTRA.DIHEDRAL.0>
7.18044

>  <SCORE.INTRA.POLAR>
0

>  <SCORE.INTRA.POLAR.0>
0

>  <SCORE.INTRA.REPUL>
0

>  <SCORE.INTRA.REPUL.0>
0

>  <SCORE.INTRA.SOLV>
1.4931

>  <SCORE.INTRA.SOLV.lig_0>
-72.0615

>  <SCORE.INTRA.VDW>
0.556147

>  <SCORE.INTRA.VDW.0>
-1.54792

>  <SCORE.INTRA.norm>
-0.0495234

>  <SCORE.RESTR>
0

>  <SCORE.RESTR.CAVITY>
0

>  <SCORE.RESTR.norm>
0

>  <SCORE.SYSTEM>
0

>  <SCORE.SYSTEM.CONST>
0

>  <SCORE.SYSTEM.DIHEDRAL>
0

>  <SCORE.SYSTEM.SOLV>
0

>  <SCORE.SYSTEM.norm>
0

>  <SCORE.heavy>
22

>  <SCORE.norm>
-0.27255

>  <RMSD>
6.680

$$$$
lig.pdb
 OpenBabel11021811523D
libRbt.so/2013.1/901 2013/11/27
 22 23  0  0  0  0  0  0  0  0999 V2000
   15.3760   -8.6353   26.4330 C   0  0  1  0  0  0  0  0  0  0  0  0
   16.1202  -10.8924   25.6584 C   0  0  1  0  0  0  0  0  0  0  0  0
   14.7613  -11.7251   26.0446 C   0  0  1  0  0  0  0  0  0  0  0  0
   15.1617  -13.2815   26.1558 C   0  0  2  0  0  0  0  0  0  0  0  0
   15.3586   -7.0780   26.0888 C   0  0  1  0  0  0  0  0  0  0  0  0
   16.8242   -6.4920   26.0999 C   0  0  2  0  0  0  0  0  0  0  0  0
   17.4289   -6.6697   27.5781 C   0  0  1  0  0  0  0  0  0  0  0  0
   17.5357   -8.2424   27.9521 C   0  0  1  0  0  0  0  0  0  0  0  0
   18.1228   -8.5112   29.3655 C   0  0  0  0  0  0  0  0  0  0  0  0
   15.6681  -13.7567   24.7067 C   0  0  1  0  0  0  0  0  0  0  0  0
   16.9927  -12.9079   24.3554 C   0  0  0  0  0  0  0  0  0  0  0  0
   16.6607  -11.3565   24.2847 C   0  0  2  0  0  0  0  0  0  0  0  0
   18.7884   -6.1281   27.6785 F   0  0  0  0  0  0  0  0  0  0  0  0
   14.6769   -6.9642   24.7170 N   0  0  0  0  0  0  0  0  0  0  0  0
   19.4476   -8.0426   29.5482 N   0  0  0  0  0  0  0  0  0  0  0  0
   16.0711  -15.1981   24.7421 N   0  0  0  0  0  0  0  0  0  0  0  0
   17.8560  -10.5745   23.9830 N   0  0  0  0  0  0  0  0  0  0  0  0
   15.8824   -9.5113   25.5063 O   0  0  0  0  0  0  0  0  0  0  0  0
   14.2870  -11.2470   27.3798 O   0  0  0  0  0  0  0  0  0  0  0  0
   14.0162  -13.9940   26.4806 O   0  0  0  0  0  0  0  0  0  0  0  0
   16.7511   -5.3449   25.8467 O   0  0  0  0  0  0  0  0  0  0  0  0
   16.0866   -8.8409   27.8095 O   0  0  0  0  0  0  0  0  0  0  0  0
  1  5  1  0  0  0  0
  1 18  1  6  0  0  0
  2 18  1  6  0  0  0
  2  3  1  0  0  0  0
  2 12  1  0  0  0  0
  3 19  1  1  0  0  0
  3  4  1  0  0  0  0
  4 20  1  6  0  0  0
  4 10  1  0  0  0  0
  5  6  1  0  0  0  0
  5 14  1  6  0  0  0
  6 21  1  1  0  0  0
  7 13  1  6  0  0  0
  7  6  1  0  0  0  0
  8  9  1  1  0  0  0
  8  7  1  0  0  0  0
 10 16  1  1  0  0  0
 11 10  1  0  0  0  0
 12 17  1  1  0  0  0
 12 11  1  0  0  0  0
 15  9  1  0  0  0  0
 22  8  1  0  0  0  0
 22  1  1  0  0  0  0
M  END
>  <CHROM.1>
172.73334044,58.90319618,-61.62234734,16.37493715,-9.73162037,26.32973472
1.06285487,-0.96620368,-0.13469021

>  <Name>
lig.pdb

>  <RI>
0

>  <Rbt.Current_Directory>
/home/itssahil/PROJECTS/Mol_Feturizer/New_Systems/rnas/5bxk

>  <Rbt.Executable>
rbdock ($Id: //depot/dev/client3/rdock/2013.1/src/exe/rbdock.cxx#4 $)

>  <Rbt.Library>
libRbt.so (2013.1, Build901 2013/11/27)

>  <Rbt.Parameter_File>
/export/apps/rDock/src/rDock_2013.1_src/data/scripts/dock_solv.prm

>  <Rbt.Receptor>
prm/pocket_docking_6.prm

>  <SCORE>
-8.2724

>  <SCORE.INTER>
-4.54545

>  <SCORE.INTER.CONST>
1

>  <SCORE.INTER.POLAR>
0

>  <SCORE.INTER.ROT>
3

>  <SCORE.INTER.SOLV>
17.7332

>  <SCORE.INTER.VDW>
-14.5414

>  <SCORE.INTER.norm>
-0.206611

>  <SCORE.INTRA>
-3.72695

>  <SCORE.INTRA.DIHEDRAL>
-6.78206

>  <SCORE.INTRA.DIHEDRAL.0>
7.18044

>  <SCORE.INTRA.POLAR>
0

>  <SCORE.INTRA.POLAR.0>
0

>  <SCORE.INTRA.REPUL>
0

>  <SCORE.INTRA.REPUL.0>
0

>  <SCORE.INTRA.SOLV>
-0.885614

>  <SCORE.INTRA.SOLV.lig_0>
-72.0615

>  <SCORE.INTRA.VDW>
0.106888

>  <SCORE.INTRA.VDW.0>
-1.54792

>  <SCORE.INTRA.norm>
-0.169407

>  <SCORE.RESTR>
0

>  <SCORE.RESTR.CAVITY>
0

>  <SCORE.RESTR.norm>
0

>  <SCORE.SYSTEM>
0

>  <SCORE.SYSTEM.CONST>
0

>  <SCORE.SYSTEM.DIHEDRAL>
0

>  <SCORE.SYSTEM.SOLV>
0

>  <SCORE.SYSTEM.norm>
0

>  <SCORE.heavy>
22

>  <SCORE.norm>
-0.376018

>  <RMSD>
6.681

$$$$
lig.pdb
 OpenBabel11021811523D
libRbt.so/2013.1/901 2013/11/27
 22 23  0  0  0  0  0  0  0  0999 V2000
   16.2981   -8.9796   27.1705 C   0  0  1  0  0  0  0  0  0  0  0  0
   16.2929  -11.1219   25.8826 C   0  0  1  0  0  0  0  0  0  0  0  0
   14.9473  -11.9107   26.3890 C   0  0  1  0  0  0  0  0  0  0  0  0
   15.1878  -13.4849   26.1454 C   0  0  2  0  0  0  0  0  0  0  0  0
   16.0587   -7.4046   27.0917 C   0  0  1  0  0  0  0  0  0  0  0  0
   17.2472   -6.7014   26.3272 C   0  0  2  0  0  0  0  0  0  0  0  0
   18.6022   -6.9596   27.1517 C   0  0  1  0  0  0  0  0  0  0  0  0
   18.9318   -8.5450   27.2012 C   0  0  1  0  0  0  0  0  0  0  0  0
   20.2362   -8.8894   27.9723 C   0  0  0  0  0  0  0  0  0  0  0  0
   15.3578  -13.7103   24.5636 C   0  0  1  0  0  0  0  0  0  0  0  0
   16.6781  -12.9099   24.1005 C   0  0  0  0  0  0  0  0  0  0  0  0
   16.5116  -11.3535   24.3682 C   0  0  2  0  0  0  0  0  0  0  0  0
   19.7571   -6.3173   26.5151 F   0  0  0  0  0  0  0  0  0  0  0  0
   14.7041   -7.2257   26.3898 N   0  0  0  0  0  0  0  0  0  0  0  0
   20.2462   -8.4661   29.3246 N   0  0  0  0  0  0  0  0  0  0  0  0
   15.5991  -15.1576   24.2663 N   0  0  0  0  0  0  0  0  0  0  0  0
   17.7076  -10.6184   23.9679 N   0  0  0  0  0  0  0  0  0  0  0  0
   16.1842   -9.7235   26.0233 O   0  0  0  0  0  0  0  0  0  0  0  0
   14.7876  -11.6630   27.8551 O   0  0  0  0  0  0  0  0  0  0  0  0
   14.0522  -14.1599   26.5699 O   0  0  0  0  0  0  0  0  0  0  0  0
   17.0221   -5.5464   26.3042 O   0  0  0  0  0  0  0  0  0  0  0  0
   17.6803   -9.2475   27.8483 O   0  0  0  0  0  0  0  0  0  0  0  0
  1  5  1  0  0  0  0
  1 18  1  6  0  0  0
  2 18  1  6  0  0  0
  2  3  1  0  0  0  0
  2 12  1  0  0  0  0
  3 19  1  1  0  0  0
  3  4  1  0  0  0  0
  4 20  1  6  0  0  0
  4 10  1  0  0  0  0
  5  6  1  0  0  0  0
  5 14  1  6  0  0  0
  6 21  1  1  0  0  0
  7 13  1  6  0  0  0
  7  6  1  0  0  0  0
  8  9  1  1  0  0  0
  8  7  1  0  0  0  0
 10 16  1  1  0  0  0
 11 10  1  0  0  0  0
 12 17  1  1  0  0  0
 12 11  1  0  0  0  0
 15  9  1  0  0  0  0
 22  8  1  0  0  0  0
 22  1  1  0  0  0  0
M  END
>  <CHROM.1>
-176.81599064,76.91736874,59.08306603,16.85015257,-9.94737290,26.36239781
1.11650513,-0.16821044,0.19569929

>  <Name>
lig.pdb

>  <RI>
0

>  <Rbt.Current_Directory>
/home/itssahil/PROJECTS/Mol_Feturizer/New_Systems/rnas/5bxk

>  <Rbt.Executable>
rbdock ($Id: //depot/dev/client3/rdock/2013.1/src/exe/rbdock.cxx#4 $)

>  <Rbt.Library>
libRbt.so (2013.1, Build901 2013/11/27)

>  <Rbt.Parameter_File>
/export/apps/rDock/src/rDock_2013.1_src/data/scripts/dock_solv.prm

>  <Rbt.Receptor>
prm/pocket_docking_8.prm

>  <SCORE>
-9.6397

>  <SCORE.INTER>
-6.49874

>  <SCORE.INTER.CONST>
1

>  <SCORE.INTER.POLAR>
0

>  <SCORE.INTER.ROT>
3

>  <SCORE.INTER.SOLV>
17.7549

>  <SCORE.INTER.VDW>
-15.8508

>  <SCORE.INTER.norm>
-0.295397

>  <SCORE.INTRA>
-3.14096

>  <SCORE.INTRA.DIHEDRAL>
-5.67178

>  <SCORE.INTRA.DIHEDRAL.0>
7.18044

>  <SCORE.INTRA.POLAR>
0

>  <SCORE.INTRA.POLAR.0>
0

>  <SCORE.INTRA.REPUL>
0

>  <SCORE.INTRA.REPUL.0>
0

>  <SCORE.INTRA.SOLV>
-0.341052

>  <SCORE.INTRA.SOLV.lig_0>
-72.0615

>  <SCORE.INTRA.VDW>
-0.134547

>  <SCORE.INTRA.VDW.0>
-1.54792

>  <SCORE.INTRA.norm>
-0.142771

>  <SCORE.RESTR>
0

>  <SCORE.RESTR.CAVITY>
0

>  <SCORE.RESTR.norm>
0

>  <SCORE.SYSTEM>
0

>  <SCORE.SYSTEM.CONST>
0

>  <SCORE.SYSTEM.DIHEDRAL>
0

>  <SCORE.SYSTEM.SOLV>
0

>  <SCORE.SYSTEM.norm>
0

>  <SCORE.heavy>
22

>  <SCORE.norm>
-0.438168

>  <RMSD>
6.687

$$$$
lig.pdb
 OpenBabel11021811523D
libRbt.so/2013.1/901 2013/11/27
 22 23  0  0  0  0  0  0  0  0999 V2000
   17.3970   -7.8825   25.7752 C   0  0  1  0  0  0  0  0  0  0  0  0
   16.0787  -10.0023   25.9057 C   0  0  1  0  0  0  0  0  0  0  0  0
   17.0155  -10.9755   24.9760 C   0  0  1  0  0  0  0  0  0  0  0  0
   16.0876  -12.1827   24.4499 C   0  0  2  0  0  0  0  0  0  0  0  0
   18.2959   -6.8516   26.5958 C   0  0  1  0  0  0  0  0  0  0  0  0
   17.3937   -5.9419   27.5177 C   0  0  2  0  0  0  0  0  0  0  0  0
   16.3989   -5.0989   26.5785 C   0  0  1  0  0  0  0  0  0  0  0  0
   15.4109   -6.0987   25.7728 C   0  0  1  0  0  0  0  0  0  0  0  0
   14.4023   -5.3677   24.8439 C   0  0  0  0  0  0  0  0  0  0  0  0
   15.5941  -13.0106   25.7357 C   0  0  1  0  0  0  0  0  0  0  0  0
   14.6913  -12.0198   26.6311 C   0  0  0  0  0  0  0  0  0  0  0  0
   15.5496  -10.7817   27.1335 C   0  0  2  0  0  0  0  0  0  0  0  0
   15.5360   -4.2079   27.3614 F   0  0  0  0  0  0  0  0  0  0  0  0
   19.2916   -7.7104   27.3898 N   0  0  0  0  0  0  0  0  0  0  0  0
   15.0007   -4.4971   23.8994 N   0  0  0  0  0  0  0  0  0  0  0  0
   14.7115  -14.1454   25.3176 N   0  0  0  0  0  0  0  0  0  0  0  0
   14.7392   -9.8676   27.9327 N   0  0  0  0  0  0  0  0  0  0  0  0
   16.7979   -8.9176   26.4476 O   0  0  0  0  0  0  0  0  0  0  0  0
   17.4915  -10.1795   23.8029 O   0  0  0  0  0  0  0  0  0  0  0  0
   16.8738  -13.0126   23.6634 O   0  0  0  0  0  0  0  0  0  0  0  0
   18.1049   -5.2006   28.0921 O   0  0  0  0  0  0  0  0  0  0  0  0
   16.3299   -7.0844   24.9590 O   0  0  0  0  0  0  0  0  0  0  0  0
  1  5  1  0  0  0  0
  1 18  1  1  0  0  0
  2 18  1  1  0  0  0
  2  3  1  0  0  0  0
  2 12  1  0  0  0  0
  3 19  1  6  0  0  0
  3  4  1  0  0  0  0
  4 20  1  6  0  0  0
  4 10  1  0  0  0  0
  5  6  1  0  0  0  0
  5 14  1  1  0  0  0
  6 21  1  6  0  0  0
  7 13  1  1  0  0  0
  7  6  1  0  0  0  0
  8  9  1  6  0  0  0
  8  7  1  0  0  0  0
 10 16  1  6  0  0  0
 11 10  1  0  0  0  0
 12 17  1  1  0  0  0
 12 11  1  0  0  0  0
 15  9  1  0  0  0  0
 22  8  1  0  0  0  0
 22  1  1  0  0  0  0
M  END
>  <CHROM.1>
-173.29719313,64.37488212,55.52716360,16.33315491,-8.61213191,25.94647316
-1.46031284,0.74379766,-3.04132152

>  <Name>
lig.pdb

>  <RI>
0

>  <Rbt.Current_Directory>
/home/itssahil/PROJECTS/Mol_Feturizer/New_Systems/rnas/5bxk

>  <Rbt.Executable>
rbdock ($Id: //depot/dev/client3/rdock/2013.1/src/exe/rbdock.cxx#4 $)

>  <Rbt.Library>
libRbt.so (2013.1, Build901 2013/11/27)

>  <Rbt.Parameter_File>
/export/apps/rDock/src/rDock_2013.1_src/data/scripts/dock_solv.prm

>  <Rbt.Receptor>
prm/pocket_docking_4.prm

>  <SCORE>
-8.47642

>  <SCORE.INTER>
-4.84305

>  <SCORE.INTER.CONST>
1

>  <SCORE.INTER.POLAR>
0

>  <SCORE.INTER.ROT>
3

>  <SCORE.INTER.SOLV>
14.2263

>  <SCORE.INTER.VDW>
-13.5708

>  <SCORE.INTER.norm>
-0.220139

>  <SCORE.INTRA>
-3.63649

>  <SCORE.INTRA.DIHEDRAL>
-6.66861

>  <SCORE.INTRA.DIHEDRAL.0>
7.18044

>  <SCORE.INTRA.POLAR>
0

>  <SCORE.INTRA.POLAR.0>
0

>  <SCORE.INTRA.REPUL>
0

>  <SCORE.INTRA.REPUL.0>
0

>  <SCORE.INTRA.SOLV>
-0.650306

>  <SCORE.INTRA.SOLV.lig_0>
-72.0615

>  <SCORE.INTRA.VDW>
0.0229646

>  <SCORE.INTRA.VDW.0>
-1.54792

>  <SCORE.INTRA.norm>
-0.165295

>  <SCORE.RESTR>
0.00312981

>  <SCORE.RESTR.CAVITY>
0.00312981

>  <SCORE.RESTR.norm>
0.000142264

>  <SCORE.SYSTEM>
0

>  <SCORE.SYSTEM.CONST>
0

>  <SCORE.SYSTEM.DIHEDRAL>
0

>  <SCORE.SYSTEM.SOLV>
0

>  <SCORE.SYSTEM.norm>
0

>  <SCORE.heavy>
22

>  <SCORE.norm>
-0.385292

>  <RMSD>
6.689

$$$$
lig.pdb
 OpenBabel11021811523D
libRbt.so/2013.1/901 2013/11/27
 22 23  0  0  0  0  0  0  0  0999 V2000
   14.9108   -7.5145   26.2259 C   0  0  1  0  0  0  0  0  0  0  0  0
   15.5939   -9.8958   25.8923 C   0  0  1  0  0  0  0  0  0  0  0  0
   14.8621  -11.3418   25.6414 C   0  0  1  0  0  0  0  0  0  0  0  0
   16.0067  -12.4751   25.6663 C   0  0  2  0  0  0  0  0  0  0  0  0
   15.0404   -7.1598   27.7755 C   0  0  1  0  0  0  0  0  0  0  0  0
   13.6391   -7.2842   28.4912 C   0  0  2  0  0  0  0  0  0  0  0  0
   12.6325   -6.2268   27.8197 C   0  0  1  0  0  0  0  0  0  0  0  0
   12.4085   -6.5851   26.2557 C   0  0  1  0  0  0  0  0  0  0  0  0
   11.4366   -5.6178   25.5249 C   0  0  0  0  0  0  0  0  0  0  0  0
   17.0076  -12.1803   24.4443 C   0  0  1  0  0  0  0  0  0  0  0  0
   17.6949  -10.7480   24.7173 C   0  0  0  0  0  0  0  0  0  0  0  0
   16.5990   -9.5994   24.7535 C   0  0  2  0  0  0  0  0  0  0  0  0
   11.3066   -6.2645   28.4460 F   0  0  0  0  0  0  0  0  0  0  0  0
   16.0896   -8.1313   28.3369 N   0  0  0  0  0  0  0  0  0  0  0  0
   11.8847   -4.2749   25.4610 N   0  0  0  0  0  0  0  0  0  0  0  0
   18.1091  -13.1939   24.4166 N   0  0  0  0  0  0  0  0  0  0  0  0
   17.2069   -8.2983   25.0163 N   0  0  0  0  0  0  0  0  0  0  0  0
   14.6853   -8.8184   25.8631 O   0  0  0  0  0  0  0  0  0  0  0  0
   13.9117  -11.5836   26.7703 O   0  0  0  0  0  0  0  0  0  0  0  0
   15.3956  -13.7024   25.4527 O   0  0  0  0  0  0  0  0  0  0  0  0
   13.7922   -7.0069   29.6248 O   0  0  0  0  0  0  0  0  0  0  0  0
   13.8318   -6.5848   25.5830 O   0  0  0  0  0  0  0  0  0  0  0  0
  1  5  1  0  0  0  0
  1 18  1  1  0  0  0
  2 18  1  6  0  0  0
  2  3  1  0  0  0  0
  2 12  1  0  0  0  0
  3 19  1  1  0  0  0
  3  4  1  0  0  0  0
  4 20  1  6  0  0  0
  4 10  1  0  0  0  0
  5  6  1  0  0  0  0
  5 14  1  1  0  0  0
  6 21  1  1  0  0  0
  7 13  1  1  0  0  0
  7  6  1  0  0  0  0
  8  9  1  6  0  0  0
  8  7  1  0  0  0  0
 10 16  1  1  0  0  0
 11 10  1  0  0  0  0
 12 17  1  1  0  0  0
 12 11  1  0  0  0  0
 15  9  1  0  0  0  0
 22  8  1  0  0  0  0
 22  1  1  0  0  0  0
M  END
>  <CHROM.1>
-73.29759813,169.45760070,63.15741529,14.65743810,-8.81558904,26.32672169
-2.53894131,-0.86025006,2.64910419

>  <Name>
lig.pdb

>  <RI>
0

>  <Rbt.Current_Directory>
/home/itssahil/PROJECTS/Mol_Feturizer/New_Systems/rnas/5bxk

>  <Rbt.Executable>
rbdock ($Id: //depot/dev/client3/rdock/2013.1/src/exe/rbdock.cxx#4 $)

>  <Rbt.Library>
libRbt.so (2013.1, Build901 2013/11/27)

>  <Rbt.Parameter_File>
/export/apps/rDock/src/rDock_2013.1_src/data/scripts/dock_solv.prm

>  <Rbt.Receptor>
prm/pocket_docking_6.prm

>  <SCORE>
-8.57812

>  <SCORE.INTER>
-7.90607

>  <SCORE.INTER.CONST>
1

>  <SCORE.INTER.POLAR>
0

>  <SCORE.INTER.ROT>
3

>  <SCORE.INTER.SOLV>
13.1102

>  <SCORE.INTER.VDW>
-15.2408

>  <SCORE.INTER.norm>
-0.359367

>  <SCORE.INTRA>
-0.672057

>  <SCORE.INTRA.DIHEDRAL>
-5.66708

>  <SCORE.INTRA.DIHEDRAL.0>
7.18044

>  <SCORE.INTRA.POLAR>
0

>  <SCORE.INTRA.POLAR.0>
0

>  <SCORE.INTRA.REPUL>
0

>  <SCORE.INTRA.REPUL.0>
0

>  <SCORE.INTRA.SOLV>
2.87996

>  <SCORE.INTRA.SOLV.lig_0>
-72.0615

>  <SCORE.INTRA.VDW>
0.721504

>  <SCORE.INTRA.VDW.0>
-1.54792

>  <SCORE.INTRA.norm>
-0.0305481

>  <SCORE.RESTR>
0

>  <SCORE.RESTR.CAVITY>
0

>  <SCORE.RESTR.norm>
0

>  <SCORE.SYSTEM>
0

>  <SCORE.SYSTEM.CONST>
0

>  <SCORE.SYSTEM.DIHEDRAL>
0

>  <SCORE.SYSTEM.SOLV>
0

>  <SCORE.SYSTEM.norm>
0

>  <SCORE.heavy>
22

>  <SCORE.norm>
-0.389915

>  <RMSD>
6.691

$$$$
lig.pdb
 OpenBabel11021811523D
libRbt.so/2013.1/901 2013/11/27
 22 23  0  0  0  0  0  0  0  0999 V2000
   16.0120   -8.8110   27.1439 C   0  0  1  0  0  0  0  0  0  0  0  0
   16.2419  -10.9580   25.8845 C   0  0  1  0  0  0  0  0  0  0  0  0
   14.9114  -11.7728   26.3894 C   0  0  1  0  0  0  0  0  0  0  0  0
   15.1963  -13.3442   26.1782 C   0  0  2  0  0  0  0  0  0  0  0  0
   15.9036   -7.2246   27.0183 C   0  0  1  0  0  0  0  0  0  0  0  0
   17.2732   -6.6132   26.5265 C   0  0  2  0  0  0  0  0  0  0  0  0
   18.4001   -6.9513   27.6211 C   0  0  1  0  0  0  0  0  0  0  0  0
   18.6020   -8.5546   27.7374 C   0  0  1  0  0  0  0  0  0  0  0  0
   19.6851   -8.9759   28.7689 C   0  0  0  0  0  0  0  0  0  0  0  0
   15.3919  -13.5941   24.6029 C   0  0  1  0  0  0  0  0  0  0  0  0
   16.6964  -12.7675   24.1409 C   0  0  0  0  0  0  0  0  0  0  0  0
   16.4855  -11.2114   24.3774 C   0  0  2  0  0  0  0  0  0  0  0  0
   19.7055   -6.3967   27.2471 F   0  0  0  0  0  0  0  0  0  0  0  0
   14.7454   -6.9641   26.0434 N   0  0  0  0  0  0  0  0  0  0  0  0
   19.4047   -8.5900   30.1033 N   0  0  0  0  0  0  0  0  0  0  0  0
   15.6750  -15.0397   24.3357 N   0  0  0  0  0  0  0  0  0  0  0  0
   17.6667  -10.4522   23.9778 N   0  0  0  0  0  0  0  0  0  0  0  0
   16.0946   -9.5605   25.9977 O   0  0  0  0  0  0  0  0  0  0  0  0
   14.7270  -11.5025   27.8486 O   0  0  0  0  0  0  0  0  0  0  0  0
   14.0737  -14.0414   26.6015 O   0  0  0  0  0  0  0  0  0  0  0  0
   17.1380   -5.4461   26.4578 O   0  0  0  0  0  0  0  0  0  0  0  0
   17.1961   -9.1626   28.1011 O   0  0  0  0  0  0  0  0  0  0  0  0
  1  5  1  0  0  0  0
  1 18  1  6  0  0  0
  2 18  1  6  0  0  0
  2  3  1  0  0  0  0
  2 12  1  0  0  0  0
  3 19  1  1  0  0  0
  3  4  1  0  0  0  0
  4 20  1  6  0  0  0
  4 10  1  0  0  0  0
  5  6  1  0  0  0  0
  5 14  1  6  0  0  0
  6 21  1  1  0  0  0
  7 13  1  6  0  0  0
  7  6  1  0  0  0  0
  8  9  1  1  0  0  0
  8  7  1  0  0  0  0
 10 16  1  1  0  0  0
 11 10  1  0  0  0  0
 12 17  1  1  0  0  0
 12 11  1  0  0  0  0
 15  9  1  0  0  0  0
 22  8  1  0  0  0  0
 22  1  1  0  0  0  0
M  END
>  <CHROM.1>
177.63654776,68.22578732,61.86190411,16.72127506,-9.85157394,26.53726733
0.96964135,-0.80168469,-0.11638691

>  <Name>
lig.pdb

>  <RI>
0

>  <Rbt.Current_Directory>
/home/itssahil/PROJECTS/Mol_Feturizer/New_Systems/rnas/5bxk

>  <Rbt.Executable>
rbdock ($Id: //depot/dev/client3/rdock/2013.1/src/exe/rbdock.cxx#4 $)

>  <Rbt.Library>
libRbt.so (2013.1, Build901 2013/11/27)

>  <Rbt.Parameter_File>
/export/apps/rDock/src/rDock_2013.1_src/data/scripts/dock_solv.prm

>  <Rbt.Receptor>
prm/pocket_docking_3.prm

>  <SCORE>
-9.27792

>  <SCORE.INTER>
-5.55899

>  <SCORE.INTER.CONST>
1

>  <SCORE.INTER.POLAR>
0

>  <SCORE.INTER.ROT>
3

>  <SCORE.INTER.SOLV>
17.5018

>  <SCORE.INTER.VDW>
-15.1399

>  <SCORE.INTER.norm>
-0.252681

>  <SCORE.INTRA>
-3.71893

>  <SCORE.INTRA.DIHEDRAL>
-6.67683

>  <SCORE.INTRA.DIHEDRAL.0>
7.18044

>  <SCORE.INTRA.POLAR>
0

>  <SCORE.INTRA.POLAR.0>
0

>  <SCORE.INTRA.REPUL>
0

>  <SCORE.INTRA.REPUL.0>
0

>  <SCORE.INTRA.SOLV>
-0.650228

>  <SCORE.INTRA.SOLV.lig_0>
-72.0615

>  <SCORE.INTRA.VDW>
-0.0553963

>  <SCORE.INTRA.VDW.0>
-1.54792

>  <SCORE.INTRA.norm>
-0.169042

>  <SCORE.RESTR>
0

>  <SCORE.RESTR.CAVITY>
0

>  <SCORE.RESTR.norm>
0

>  <SCORE.SYSTEM>
0

>  <SCORE.SYSTEM.CONST>
0

>  <SCORE.SYSTEM.DIHEDRAL>
0

>  <SCORE.SYSTEM.SOLV>
0

>  <SCORE.SYSTEM.norm>
0

>  <SCORE.heavy>
22

>  <SCORE.norm>
-0.421723

>  <RMSD>
6.693

$$$$
lig.pdb
 OpenBabel11021811523D
libRbt.so/2013.1/901 2013/11/27
 22 23  0  0  0  0  0  0  0  0999 V2000
   17.6646  -12.4711   24.0140 C   0  0  1  0  0  0  0  0  0  0  0  0
   19.6820  -13.9445   24.1023 C   0  0  1  0  0  0  0  0  0  0  0  0
   20.6191  -13.2453   22.9524 C   0  0  1  0  0  0  0  0  0  0  0  0
   21.6696  -14.3551   22.4426 C   0  0  2  0  0  0  0  0  0  0  0  0
   16.8219  -11.3633   24.7929 C   0  0  1  0  0  0  0  0  0  0  0  0
   15.9840  -12.0219   25.9571 C   0  0  2  0  0  0  0  0  0  0  0  0
   14.9520  -13.0688   25.3079 C   0  0  1  0  0  0  0  0  0  0  0  0
   15.7596  -14.2591   24.5622 C   0  0  1  0  0  0  0  0  0  0  0  0
   14.8388  -15.3283   23.9116 C   0  0  0  0  0  0  0  0  0  0  0  0
   22.5950  -14.7573   23.6931 C   0  0  1  0  0  0  0  0  0  0  0  0
   21.6396  -15.4256   24.8061 C   0  0  0  0  0  0  0  0  0  0  0  0
   20.5496  -14.3844   25.3058 C   0  0  2  0  0  0  0  0  0  0  0  0
   14.1164  -13.7124   26.3272 F   0  0  0  0  0  0  0  0  0  0  0  0
   17.8499  -10.3396   25.2980 N   0  0  0  0  0  0  0  0  0  0  0  0
   15.5311  -16.3841   23.2681 N   0  0  0  0  0  0  0  0  0  0  0  0
   23.5905  -15.8005   23.2905 N   0  0  0  0  0  0  0  0  0  0  0  0
   19.6670  -14.9824   26.3031 N   0  0  0  0  0  0  0  0  0  0  0  0
   18.7361  -13.0511   24.6449 O   0  0  0  0  0  0  0  0  0  0  0  0
   19.7368  -12.8487   21.8120 O   0  0  0  0  0  0  0  0  0  0  0  0
   22.4683  -13.7705   21.4700 O   0  0  0  0  0  0  0  0  0  0  0  0
   15.3805  -11.1640   26.4911 O   0  0  0  0  0  0  0  0  0  0  0  0
   16.6886  -13.5740   23.4916 O   0  0  0  0  0  0  0  0  0  0  0  0
  1  5  1  0  0  0  0
  1 18  1  1  0  0  0
  2 18  1  1  0  0  0
  2  3  1  0  0  0  0
  2 12  1  0  0  0  0
  3 19  1  6  0  0  0
  3  4  1  0  0  0  0
  4 20  1  6  0  0  0
  4 10  1  0  0  0  0
  5  6  1  0  0  0  0
  5 14  1  1  0  0  0
  6 21  1  6  0  0  0
  7 13  1  1  0  0  0
  7  6  1  0  0  0  0
  8  9  1  6  0  0  0
  8  7  1  0  0  0  0
 10 16  1  6  0  0  0
 11 10  1  0  0  0  0
 12 17  1  1  0  0  0
 12 11  1  0  0  0  0
 15  9  1  0  0  0  0
 22  8  1  0  0  0  0
 22  1  1  0  0  0  0
M  END
>  <CHROM.1>
-173.35615354,66.37073085,-179.33369950,18.40875029,-13.63292045,24.29314967
-2.85576880,-0.24829570,-2.86392905

>  <Name>
lig.pdb

>  <RI>
0

>  <Rbt.Current_Directory>
/home/itssahil/PROJECTS/Mol_Feturizer/New_Systems/rnas/5bxk

>  <Rbt.Executable>
rbdock ($Id: //depot/dev/client3/rdock/2013.1/src/exe/rbdock.cxx#4 $)

>  <Rbt.Library>
libRbt.so (2013.1, Build901 2013/11/27)

>  <Rbt.Parameter_File>
/export/apps/rDock/src/rDock_2013.1_src/data/scripts/dock_solv.prm

>  <Rbt.Receptor>
prm/pocket_docking_6.prm

>  <SCORE>
-11.8761

>  <SCORE.INTER>
-7.77275

>  <SCORE.INTER.CONST>
1

>  <SCORE.INTER.POLAR>
0

>  <SCORE.INTER.ROT>
3

>  <SCORE.INTER.SOLV>
14.2852

>  <SCORE.INTER.VDW>
-15.5436

>  <SCORE.INTER.norm>
-0.353307

>  <SCORE.INTRA>
-4.10335

>  <SCORE.INTRA.DIHEDRAL>
-6.63726

>  <SCORE.INTRA.DIHEDRAL.0>
7.18044

>  <SCORE.INTRA.POLAR>
0

>  <SCORE.INTRA.POLAR.0>
0

>  <SCORE.INTRA.REPUL>
0

>  <SCORE.INTRA.REPUL.0>
0

>  <SCORE.INTRA.SOLV>
-1.70913

>  <SCORE.INTRA.SOLV.lig_0>
-72.0615

>  <SCORE.INTRA.VDW>
0.0698411

>  <SCORE.INTRA.VDW.0>
-1.54792

>  <SCORE.INTRA.norm>
-0.186516

>  <SCORE.RESTR>
0

>  <SCORE.RESTR.CAVITY>
0

>  <SCORE.RESTR.norm>
0

>  <SCORE.SYSTEM>
0

>  <SCORE.SYSTEM.CONST>
0

>  <SCORE.SYSTEM.DIHEDRAL>
0

>  <SCORE.SYSTEM.SOLV>
0

>  <SCORE.SYSTEM.norm>
0

>  <SCORE.heavy>
22

>  <SCORE.norm>
-0.539823

>  <RMSD>
6.693

$$$$
lig.pdb
 OpenBabel11021811523D
libRbt.so/2013.1/901 2013/11/27
 22 23  0  0  0  0  0  0  0  0999 V2000
   17.6672  -12.4591   24.0064 C   0  0  1  0  0  0  0  0  0  0  0  0
   19.6851  -13.9319   24.0932 C   0  0  1  0  0  0  0  0  0  0  0  0
   20.6253  -13.2419   22.9404 C   0  0  1  0  0  0  0  0  0  0  0  0
   21.6688  -14.3596   22.4332 C   0  0  2  0  0  0  0  0  0  0  0  0
   16.8233  -11.3523   24.7854 C   0  0  1  0  0  0  0  0  0  0  0  0
   15.9949  -12.0104   25.9568 C   0  0  2  0  0  0  0  0  0  0  0  0
   14.9648  -13.0651   25.3174 C   0  0  1  0  0  0  0  0  0  0  0  0
   15.7742  -14.2543   24.5722 C   0  0  1  0  0  0  0  0  0  0  0  0
   14.8552  -15.3308   23.9310 C   0  0  0  0  0  0  0  0  0  0  0  0
   22.5929  -14.7633   23.6842 C   0  0  1  0  0  0  0  0  0  0  0  0
   21.6345  -15.4224   24.8002 C   0  0  0  0  0  0  0  0  0  0  0  0
   20.5511  -14.3731   25.2975 C   0  0  2  0  0  0  0  0  0  0  0  0
   14.1379  -13.7086   26.3439 F   0  0  0  0  0  0  0  0  0  0  0  0
   17.8488  -10.3215   25.2808 N   0  0  0  0  0  0  0  0  0  0  0  0
   15.5484  -16.3637   23.2524 N   0  0  0  0  0  0  0  0  0  0  0  0
   23.5819  -15.8138   23.2841 N   0  0  0  0  0  0  0  0  0  0  0  0
   19.6658  -14.9627   26.2974 N   0  0  0  0  0  0  0  0  0  0  0  0
   18.7450  -13.0312   24.6338 O   0  0  0  0  0  0  0  0  0  0  0  0
   19.7445  -12.8437   21.7994 O   0  0  0  0  0  0  0  0  0  0  0  0
   22.4701  -13.7829   21.4581 O   0  0  0  0  0  0  0  0  0  0  0  0
   15.3901  -11.1533   26.4906 O   0  0  0  0  0  0  0  0  0  0  0  0
   16.6939  -13.5690   23.4938 O   0  0  0  0  0  0  0  0  0  0  0  0
  1  5  1  0  0  0  0
  1 18  1  1  0  0  0
  2 18  1  1  0  0  0
  2  3  1  0  0  0  0
  2 12  1  0  0  0  0
  3 19  1  6  0  0  0
  3  4  1  0  0  0  0
  4 20  1  6  0  0  0
  4 10  1  0  0  0  0
  5  6  1  0  0  0  0
  5 14  1  1  0  0  0
  6 21  1  6  0  0  0
  7 13  1  1  0  0  0
  7  6  1  0  0  0  0
  8  9  1  6  0  0  0
  8  7  1  0  0  0  0
 10 16  1  6  0  0  0
 11 10  1  0  0  0  0
 12 17  1  1  0  0  0
 12 11  1  0  0  0  0
 15  9  1  0  0  0  0
 22  8  1  0  0  0  0
 22  1  1  0  0  0  0
M  END
>  <CHROM.1>
-174.01404775,67.21750317,178.80672921,18.41465198,-13.62672172,24.28920995
-2.85376161,-0.25271212,-2.86976304

>  <Name>
lig.pdb

>  <RI>
0

>  <Rbt.Current_Directory>
/home/itssahil/PROJECTS/Mol_Feturizer/New_Systems/rnas/5bxk

>  <Rbt.Executable>
rbdock ($Id: //depot/dev/client3/rdock/2013.1/src/exe/rbdock.cxx#4 $)

>  <Rbt.Library>
libRbt.so (2013.1, Build901 2013/11/27)

>  <Rbt.Parameter_File>
/export/apps/rDock/src/rDock_2013.1_src/data/scripts/dock_solv.prm

>  <Rbt.Receptor>
prm/pocket_docking_8.prm

>  <SCORE>
-11.8575

>  <SCORE.INTER>
-7.77419

>  <SCORE.INTER.CONST>
1

>  <SCORE.INTER.POLAR>
0

>  <SCORE.INTER.ROT>
3

>  <SCORE.INTER.SOLV>
14.3053

>  <SCORE.INTER.VDW>
-15.5512

>  <SCORE.INTER.norm>
-0.353372

>  <SCORE.INTRA>
-4.0833

>  <SCORE.INTRA.DIHEDRAL>
-6.61727

>  <SCORE.INTRA.DIHEDRAL.0>
7.18044

>  <SCORE.INTRA.POLAR>
0

>  <SCORE.INTRA.POLAR.0>
0

>  <SCORE.INTRA.REPUL>
0

>  <SCORE.INTRA.REPUL.0>
0

>  <SCORE.INTRA.SOLV>
-1.67171

>  <SCORE.INTRA.SOLV.lig_0>
-72.0615

>  <SCORE.INTRA.VDW>
0.0611888

>  <SCORE.INTRA.VDW.0>
-1.54792

>  <SCORE.INTRA.norm>
-0.185605

>  <SCORE.RESTR>
0

>  <SCORE.RESTR.CAVITY>
0

>  <SCORE.RESTR.norm>
0

>  <SCORE.SYSTEM>
0

>  <SCORE.SYSTEM.CONST>
0

>  <SCORE.SYSTEM.DIHEDRAL>
0

>  <SCORE.SYSTEM.SOLV>
0

>  <SCORE.SYSTEM.norm>
0

>  <SCORE.heavy>
22

>  <SCORE.norm>
-0.538977

>  <RMSD>
6.693

$$$$
lig.pdb
 OpenBabel11021811523D
libRbt.so/2013.1/901 2013/11/27
 22 23  0  0  0  0  0  0  0  0999 V2000
   17.7073  -12.4575   23.8846 C   0  0  1  0  0  0  0  0  0  0  0  0
   19.7458  -13.8933   24.0625 C   0  0  1  0  0  0  0  0  0  0  0  0
   20.7231  -13.2553   22.9106 C   0  0  1  0  0  0  0  0  0  0  0  0
   21.7703  -14.3994   22.4753 C   0  0  2  0  0  0  0  0  0  0  0  0
   16.8501  -11.3121   24.5896 C   0  0  1  0  0  0  0  0  0  0  0  0
   16.0415  -11.8984   25.8118 C   0  0  2  0  0  0  0  0  0  0  0  0
   15.0250  -13.0130   25.2580 C   0  0  1  0  0  0  0  0  0  0  0  0
   15.8494  -14.2388   24.5927 C   0  0  1  0  0  0  0  0  0  0  0  0
   14.9444  -15.3735   24.0376 C   0  0  0  0  0  0  0  0  0  0  0  0
   22.6563  -14.7622   23.7659 C   0  0  1  0  0  0  0  0  0  0  0  0
   21.6620  -15.3706   24.8792 C   0  0  0  0  0  0  0  0  0  0  0  0
   20.5747  -14.2948   25.3061 C   0  0  2  0  0  0  0  0  0  0  0  0
   14.2166  -13.5951   26.3346 F   0  0  0  0  0  0  0  0  0  0  0  0
   17.8613  -10.2316   25.0017 N   0  0  0  0  0  0  0  0  0  0  0  0
   15.6523  -16.4805   23.5070 N   0  0  0  0  0  0  0  0  0  0  0  0
   23.6466  -15.8347   23.4335 N   0  0  0  0  0  0  0  0  0  0  0  0
   19.6572  -14.8389   26.3029 N   0  0  0  0  0  0  0  0  0  0  0  0
   18.7992  -12.9654   24.5422 O   0  0  0  0  0  0  0  0  0  0  0  0
   19.8773  -12.8942   21.7314 O   0  0  0  0  0  0  0  0  0  0  0  0
   22.6029  -13.8667   21.5015 O   0  0  0  0  0  0  0  0  0  0  0  0
   15.4259  -11.0155   26.2882 O   0  0  0  0  0  0  0  0  0  0  0  0
   16.7495  -13.6172   23.4606 O   0  0  0  0  0  0  0  0  0  0  0  0
  1  5  1  0  0  0  0
  1 18  1  1  0  0  0
  2 18  1  1  0  0  0
  2  3  1  0  0  0  0
  2 12  1  0  0  0  0
  3 19  1  6  0  0  0
  3  4  1  0  0  0  0
  4 20  1  6  0  0  0
  4 10  1  0  0  0  0
  5  6  1  0  0  0  0
  5 14  1  1  0  0  0
  6 21  1  6  0  0  0
  7 13  1  1  0  0  0
  7  6  1  0  0  0  0
  8  9  1  6  0  0  0
  8  7  1  0  0  0  0
 10 16  1  6  0  0  0
 11 10  1  0  0  0  0
 12 17  1  1  0  0  0
 12 11  1  0  0  0  0
 15  9  1  0  0  0  0
 22  8  1  0  0  0  0
 22  1  1  0  0  0  0
M  END
>  <CHROM.1>
-174.46599362,70.60098979,-177.28931316,18.47811911,-13.60306132,24.26697703
-2.88583554,-0.27570768,-3.01541806

>  <Name>
lig.pdb

>  <RI>
0

>  <Rbt.Current_Directory>
/home/itssahil/PROJECTS/Mol_Feturizer/New_Systems/rnas/5bxk

>  <Rbt.Executable>
rbdock ($Id: //depot/dev/client3/rdock/2013.1/src/exe/rbdock.cxx#4 $)

>  <Rbt.Library>
libRbt.so (2013.1, Build901 2013/11/27)

>  <Rbt.Parameter_File>
/export/apps/rDock/src/rDock_2013.1_src/data/scripts/dock_solv.prm

>  <Rbt.Receptor>
prm/pocket_docking_8.prm

>  <SCORE>
-11.884

>  <SCORE.INTER>
-7.93816

>  <SCORE.INTER.CONST>
1

>  <SCORE.INTER.POLAR>
0

>  <SCORE.INTER.ROT>
3

>  <SCORE.INTER.SOLV>
15.0156

>  <SCORE.INTER.VDW>
-15.8973

>  <SCORE.INTER.norm>
-0.360825

>  <SCORE.INTRA>
-3.94585

>  <SCORE.INTRA.DIHEDRAL>
-6.33297

>  <SCORE.INTRA.DIHEDRAL.0>
7.18044

>  <SCORE.INTRA.POLAR>
0

>  <SCORE.INTRA.POLAR.0>
0

>  <SCORE.INTRA.REPUL>
0

>  <SCORE.INTRA.REPUL.0>
0

>  <SCORE.INTRA.SOLV>
-1.61896

>  <SCORE.INTRA.SOLV.lig_0>
-72.0615

>  <SCORE.INTRA.VDW>
0.0301107

>  <SCORE.INTRA.VDW.0>
-1.54792

>  <SCORE.INTRA.norm>
-0.179357

>  <SCORE.RESTR>
0

>  <SCORE.RESTR.CAVITY>
0

>  <SCORE.RESTR.norm>
0

>  <SCORE.SYSTEM>
0

>  <SCORE.SYSTEM.CONST>
0

>  <SCORE.SYSTEM.DIHEDRAL>
0

>  <SCORE.SYSTEM.SOLV>
0

>  <SCORE.SYSTEM.norm>
0

>  <SCORE.heavy>
22

>  <SCORE.norm>
-0.540182

>  <RMSD>
6.695

$$$$
lig.pdb
 OpenBabel11021811523D
libRbt.so/2013.1/901 2013/11/27
 22 23  0  0  0  0  0  0  0  0999 V2000
   17.1280   -7.9215   25.3712 C   0  0  1  0  0  0  0  0  0  0  0  0
   15.9086  -10.0769   25.7116 C   0  0  1  0  0  0  0  0  0  0  0  0
   16.8989  -11.1104   24.9115 C   0  0  1  0  0  0  0  0  0  0  0  0
   16.0257  -12.4019   24.5057 C   0  0  2  0  0  0  0  0  0  0  0  0
   17.9592   -6.7634   26.0868 C   0  0  1  0  0  0  0  0  0  0  0  0
   16.9973   -5.8146   26.9028 C   0  0  2  0  0  0  0  0  0  0  0  0
   15.9705   -5.1293   25.8741 C   0  0  1  0  0  0  0  0  0  0  0  0
   15.0485   -6.2598   25.1695 C   0  0  1  0  0  0  0  0  0  0  0  0
   14.0138   -5.6854   24.1625 C   0  0  0  0  0  0  0  0  0  0  0  0
   15.5341  -13.1018   25.8661 C   0  0  1  0  0  0  0  0  0  0  0  0
   14.5780  -12.0533   26.6308 C   0  0  0  0  0  0  0  0  0  0  0  0
   15.3811  -10.7363   27.0085 C   0  0  2  0  0  0  0  0  0  0  0  0
   15.0506   -4.2112   26.5542 F   0  0  0  0  0  0  0  0  0  0  0  0
   18.9897   -7.4795   26.9728 N   0  0  0  0  0  0  0  0  0  0  0  0
   14.5802   -4.9175   23.1148 N   0  0  0  0  0  0  0  0  0  0  0  0
   14.7014  -14.3078   25.5603 N   0  0  0  0  0  0  0  0  0  0  0  0
   14.5219   -9.7711   27.6877 N   0  0  0  0  0  0  0  0  0  0  0  0
   16.5772   -8.9132   26.1430 O   0  0  0  0  0  0  0  0  0  0  0  0
   17.3716  -10.4305   23.6662 O   0  0  0  0  0  0  0  0  0  0  0  0
   16.8573  -13.2830   23.8293 O   0  0  0  0  0  0  0  0  0  0  0  0
   17.6600   -4.9799   27.4023 O   0  0  0  0  0  0  0  0  0  0  0  0
   16.0299   -7.2720   24.4689 O   0  0  0  0  0  0  0  0  0  0  0  0
  1  5  1  0  0  0  0
  1 18  1  1  0  0  0
  2 18  1  1  0  0  0
  2  3  1  0  0  0  0
  2 12  1  0  0  0  0
  3 19  1  6  0  0  0
  3  4  1  0  0  0  0
  4 20  1  1  0  0  0
  4 10  1  0  0  0  0
  5  6  1  0  0  0  0
  5 14  1  1  0  0  0
  6 21  1  6  0  0  0
  7 13  1  1  0  0  0
  7  6  1  0  0  0  0
  8  9  1  6  0  0  0
  8  7  1  0  0  0  0
 10 16  1  6  0  0  0
 11 10  1  0  0  0  0
 12 17  1  6  0  0  0
 12 11  1  0  0  0  0
 15  9  1  0  0  0  0
 22  8  1  0  0  0  0
 22  1  1  0  0  0  0
M  END
>  <CHROM.1>
-174.25871754,65.94532067,57.27752095,16.08401006,-8.68453648,25.61281422
-1.52598903,0.71062101,-3.09939313

>  <Name>
lig.pdb

>  <RI>
0

>  <Rbt.Current_Directory>
/home/itssahil/PROJECTS/Mol_Feturizer/New_Systems/rnas/5bxk

>  <Rbt.Executable>
rbdock ($Id: //depot/dev/client3/rdock/2013.1/src/exe/rbdock.cxx#4 $)

>  <Rbt.Library>
libRbt.so (2013.1, Build901 2013/11/27)

>  <Rbt.Parameter_File>
/export/apps/rDock/src/rDock_2013.1_src/data/scripts/dock_solv.prm

>  <Rbt.Receptor>
prm/pocket_docking_7.prm

>  <SCORE>
-9.84125

>  <SCORE.INTER>
-6.17687

>  <SCORE.INTER.CONST>
1

>  <SCORE.INTER.POLAR>
0

>  <SCORE.INTER.ROT>
3

>  <SCORE.INTER.SOLV>
16.0964

>  <SCORE.INTER.VDW>
-15.0834

>  <SCORE.INTER.norm>
-0.280767

>  <SCORE.INTRA>
-3.66439

>  <SCORE.INTRA.DIHEDRAL>
-6.69038

>  <SCORE.INTRA.DIHEDRAL.0>
7.18044

>  <SCORE.INTRA.POLAR>
0

>  <SCORE.INTRA.POLAR.0>
0

>  <SCORE.INTRA.REPUL>
0

>  <SCORE.INTRA.REPUL.0>
0

>  <SCORE.INTRA.SOLV>
-0.642676

>  <SCORE.INTRA.SOLV.lig_0>
-72.0615

>  <SCORE.INTRA.VDW>
0.0021389

>  <SCORE.INTRA.VDW.0>
-1.54792

>  <SCORE.INTRA.norm>
-0.166563

>  <SCORE.RESTR>
0

>  <SCORE.RESTR.CAVITY>
0

>  <SCORE.RESTR.norm>
0

>  <SCORE.SYSTEM>
0

>  <SCORE.SYSTEM.CONST>
0

>  <SCORE.SYSTEM.DIHEDRAL>
0

>  <SCORE.SYSTEM.SOLV>
0

>  <SCORE.SYSTEM.norm>
0

>  <SCORE.heavy>
22

>  <SCORE.norm>
-0.44733

>  <RMSD>
6.703

$$$$
lig.pdb
 OpenBabel11021811523D
libRbt.so/2013.1/901 2013/11/27
 22 23  0  0  0  0  0  0  0  0999 V2000
   18.8584   -8.6862   26.6236 C   0  0  1  0  0  0  0  0  0  0  0  0
   17.0242  -10.2512   25.9642 C   0  0  1  0  0  0  0  0  0  0  0  0
   17.9108  -11.5430   25.4801 C   0  0  1  0  0  0  0  0  0  0  0  0
   16.9901  -12.4194   24.4906 C   0  0  2  0  0  0  0  0  0  0  0  0
   19.5772   -7.9619   27.8495 C   0  0  1  0  0  0  0  0  0  0  0  0
   18.7069   -6.7499   28.3642 C   0  0  2  0  0  0  0  0  0  0  0  0
   18.5652   -5.6852   27.1689 C   0  0  1  0  0  0  0  0  0  0  0  0
   17.7754   -6.3498   25.9202 C   0  0  1  0  0  0  0  0  0  0  0  0
   17.5814   -5.3854   24.7174 C   0  0  0  0  0  0  0  0  0  0  0  0
   15.7292  -12.9429   25.3381 C   0  0  1  0  0  0  0  0  0  0  0  0
   14.8921  -11.6482   25.8087 C   0  0  0  0  0  0  0  0  0  0  0  0
   15.7758  -10.7218   26.7484 C   0  0  2  0  0  0  0  0  0  0  0  0
   17.7835   -4.5124   27.5749 F   0  0  0  0  0  0  0  0  0  0  0  0
   19.7791   -9.0508   28.9139 N   0  0  0  0  0  0  0  0  0  0  0  0
   16.7424   -4.2754   24.9861 N   0  0  0  0  0  0  0  0  0  0  0  0
   14.8204  -13.7576   24.4712 N   0  0  0  0  0  0  0  0  0  0  0  0
   15.0343   -9.5367   27.1688 N   0  0  0  0  0  0  0  0  0  0  0  0
   17.7249   -9.4214   26.8629 O   0  0  0  0  0  0  0  0  0  0  0  0
   19.0957  -11.0354   24.7219 O   0  0  0  0  0  0  0  0  0  0  0  0
   17.7328  -13.5163   24.0776 O   0  0  0  0  0  0  0  0  0  0  0  0
   19.2850   -6.2514   29.2602 O   0  0  0  0  0  0  0  0  0  0  0  0
   18.5872   -7.6323   25.5022 O   0  0  0  0  0  0  0  0  0  0  0  0
  1  5  1  0  0  0  0
  1 18  1  1  0  0  0
  2 18  1  1  0  0  0
  2  3  1  0  0  0  0
  2 12  1  0  0  0  0
  3 19  1  6  0  0  0
  3  4  1  0  0  0  0
  4 20  1  1  0  0  0
  4 10  1  0  0  0  0
  5  6  1  0  0  0  0
  5 14  1  1  0  0  0
  6 21  1  1  0  0  0
  7 13  1  1  0  0  0
  7  6  1  0  0  0  0
  8  9  1  6  0  0  0
  8  7  1  0  0  0  0
 10 16  1  6  0  0  0
 11 10  1  0  0  0  0
 12 17  1  6  0  0  0
 12 11  1  0  0  0  0
 15  9  1  0  0  0  0
 22  8  1  0  0  0  0
 22  1  1  0  0  0  0
M  END
>  <CHROM.1>
-172.45943081,64.67133670,-65.52384815,17.57312358,-8.99585565,26.28412728
-1.21496241,0.72307076,-3.07710519

>  <Name>
lig.pdb

>  <RI>
0

>  <Rbt.Current_Directory>
/home/itssahil/PROJECTS/Mol_Feturizer/New_Systems/rnas/5bxk

>  <Rbt.Executable>
rbdock ($Id: //depot/dev/client3/rdock/2013.1/src/exe/rbdock.cxx#4 $)

>  <Rbt.Library>
libRbt.so (2013.1, Build901 2013/11/27)

>  <Rbt.Parameter_File>
/export/apps/rDock/src/rDock_2013.1_src/data/scripts/dock_solv.prm

>  <Rbt.Receptor>
prm/pocket_docking_4.prm

>  <SCORE>
-8.39808

>  <SCORE.INTER>
-4.78598

>  <SCORE.INTER.CONST>
1

>  <SCORE.INTER.POLAR>
0

>  <SCORE.INTER.ROT>
3

>  <SCORE.INTER.SOLV>
15.4089

>  <SCORE.INTER.VDW>
-13.9269

>  <SCORE.INTER.norm>
-0.217544

>  <SCORE.INTRA>
-3.6121

>  <SCORE.INTRA.DIHEDRAL>
-6.56276

>  <SCORE.INTRA.DIHEDRAL.0>
7.18044

>  <SCORE.INTRA.POLAR>
0

>  <SCORE.INTRA.POLAR.0>
0

>  <SCORE.INTRA.REPUL>
0

>  <SCORE.INTRA.REPUL.0>
0

>  <SCORE.INTRA.SOLV>
-0.861872

>  <SCORE.INTRA.SOLV.lig_0>
-72.0615

>  <SCORE.INTRA.VDW>
0.10021

>  <SCORE.INTRA.VDW.0>
-1.54792

>  <SCORE.INTRA.norm>
-0.164187

>  <SCORE.RESTR>
0

>  <SCORE.RESTR.CAVITY>
0

>  <SCORE.RESTR.norm>
0

>  <SCORE.SYSTEM>
0

>  <SCORE.SYSTEM.CONST>
0

>  <SCORE.SYSTEM.DIHEDRAL>
0

>  <SCORE.SYSTEM.SOLV>
0

>  <SCORE.SYSTEM.norm>
0

>  <SCORE.heavy>
22

>  <SCORE.norm>
-0.381731

>  <RMSD>
6.705

$$$$
lig.pdb
 OpenBabel11021811523D
libRbt.so/2013.1/901 2013/11/27
 22 23  0  0  0  0  0  0  0  0999 V2000
   18.8517   -8.6817   26.6148 C   0  0  1  0  0  0  0  0  0  0  0  0
   17.0203  -10.2518   25.9594 C   0  0  1  0  0  0  0  0  0  0  0  0
   17.9075  -11.5467   25.4848 C   0  0  1  0  0  0  0  0  0  0  0  0
   16.9890  -12.4278   24.4973 C   0  0  2  0  0  0  0  0  0  0  0  0
   19.5714   -7.9563   27.8395 C   0  0  1  0  0  0  0  0  0  0  0  0
   18.7008   -6.7448   28.3548 C   0  0  2  0  0  0  0  0  0  0  0  0
   18.5568   -5.6807   27.1592 C   0  0  1  0  0  0  0  0  0  0  0  0
   17.7660   -6.3465   25.9117 C   0  0  1  0  0  0  0  0  0  0  0  0
   17.5698   -5.3827   24.7088 C   0  0  0  0  0  0  0  0  0  0  0  0
   15.7254  -12.9459   25.3440 C   0  0  1  0  0  0  0  0  0  0  0  0
   14.8878  -11.6482   25.8052 C   0  0  0  0  0  0  0  0  0  0  0  0
   15.7694  -10.7174   26.7424 C   0  0  2  0  0  0  0  0  0  0  0  0
   17.7746   -4.5083   27.5657 F   0  0  0  0  0  0  0  0  0  0  0  0
   19.7754   -9.0447   28.9042 N   0  0  0  0  0  0  0  0  0  0  0  0
   16.7302   -4.2733   24.9779 N   0  0  0  0  0  0  0  0  0  0  0  0
   14.8185  -13.7647   24.4787 N   0  0  0  0  0  0  0  0  0  0  0  0
   15.0275   -9.5295   27.1544 N   0  0  0  0  0  0  0  0  0  0  0  0
   17.7190   -9.4177   26.8557 O   0  0  0  0  0  0  0  0  0  0  0  0
   19.0949  -11.0440   24.7274 O   0  0  0  0  0  0  0  0  0  0  0  0
   17.7322  -13.5275   24.0924 O   0  0  0  0  0  0  0  0  0  0  0  0
   19.2795   -6.2455   29.2498 O   0  0  0  0  0  0  0  0  0  0  0  0
   18.5783   -7.6285   25.4933 O   0  0  0  0  0  0  0  0  0  0  0  0
  1  5  1  0  0  0  0
  1 18  1  1  0  0  0
  2 18  1  1  0  0  0
  2  3  1  0  0  0  0
  2 12  1  0  0  0  0
  3 19  1  6  0  0  0
  3  4  1  0  0  0  0
  4 20  1  1  0  0  0
  4 10  1  0  0  0  0
  5  6  1  0  0  0  0
  5 14  1  1  0  0  0
  6 21  1  1  0  0  0
  7 13  1  1  0  0  0
  7  6  1  0  0  0  0
  8  9  1  6  0  0  0
  8  7  1  0  0  0  0
 10 16  1  6  0  0  0
 11 10  1  0  0  0  0
 12 17  1  6  0  0  0
 12 11  1  0  0  0  0
 15  9  1  0  0  0  0
 22  8  1  0  0  0  0
 22  1  1  0  0  0  0
M  END
>  <CHROM.1>
-172.23288739,64.86500291,-65.52805456,17.56736851,-8.99495325,26.27994613
-1.21885914,0.71652128,-3.07529332

>  <Name>
lig.pdb

>  <RI>
0

>  <Rbt.Current_Directory>
/home/itssahil/PROJECTS/Mol_Feturizer/New_Systems/rnas/5bxk

>  <Rbt.Executable>
rbdock ($Id: //depot/dev/client3/rdock/2013.1/src/exe/rbdock.cxx#4 $)

>  <Rbt.Library>
libRbt.so (2013.1, Build901 2013/11/27)

>  <Rbt.Parameter_File>
/export/apps/rDock/src/rDock_2013.1_src/data/scripts/dock_solv.prm

>  <Rbt.Receptor>
prm/pocket_docking_4.prm

>  <SCORE>
-8.39643

>  <SCORE.INTER>
-4.79681

>  <SCORE.INTER.CONST>
1

>  <SCORE.INTER.POLAR>
0

>  <SCORE.INTER.ROT>
3

>  <SCORE.INTER.SOLV>
15.3449

>  <SCORE.INTER.VDW>
-13.9129

>  <SCORE.INTER.norm>
-0.218037

>  <SCORE.INTRA>
-3.59961

>  <SCORE.INTRA.DIHEDRAL>
-6.53754

>  <SCORE.INTRA.DIHEDRAL.0>
7.18044

>  <SCORE.INTRA.POLAR>
0

>  <SCORE.INTRA.POLAR.0>
0

>  <SCORE.INTRA.REPUL>
0

>  <SCORE.INTRA.REPUL.0>
0

>  <SCORE.INTRA.SOLV>
-0.858722

>  <SCORE.INTRA.SOLV.lig_0>
-72.0615

>  <SCORE.INTRA.VDW>
0.098517

>  <SCORE.INTRA.VDW.0>
-1.54792

>  <SCORE.INTRA.norm>
-0.163619

>  <SCORE.RESTR>
0

>  <SCORE.RESTR.CAVITY>
0

>  <SCORE.RESTR.norm>
0

>  <SCORE.SYSTEM>
0

>  <SCORE.SYSTEM.CONST>
0

>  <SCORE.SYSTEM.DIHEDRAL>
0

>  <SCORE.SYSTEM.SOLV>
0

>  <SCORE.SYSTEM.norm>
0

>  <SCORE.heavy>
22

>  <SCORE.norm>
-0.381656

>  <RMSD>
6.706

$$$$
lig.pdb
 OpenBabel11021811523D
libRbt.so/2013.1/901 2013/11/27
 22 23  0  0  0  0  0  0  0  0999 V2000
   16.5412   -7.2784   25.3971 C   0  0  1  0  0  0  0  0  0  0  0  0
   15.4830   -9.5154   25.7500 C   0  0  1  0  0  0  0  0  0  0  0  0
   16.6461  -10.4184   25.0282 C   0  0  1  0  0  0  0  0  0  0  0  0
   15.9862  -11.8346   24.6355 C   0  0  2  0  0  0  0  0  0  0  0  0
   17.0971   -5.9667   26.1144 C   0  0  1  0  0  0  0  0  0  0  0  0
   15.9049   -5.0712   26.6321 C   0  0  2  0  0  0  0  0  0  0  0  0
   15.0286   -4.6137   25.3652 C   0  0  1  0  0  0  0  0  0  0  0  0
   14.3791   -5.9082   24.6392 C   0  0  1  0  0  0  0  0  0  0  0  0
   13.5023   -5.5594   23.4046 C   0  0  0  0  0  0  0  0  0  0  0  0
   15.5398  -12.5565   25.9999 C   0  0  1  0  0  0  0  0  0  0  0  0
   14.4100  -11.6348   26.6871 C   0  0  0  0  0  0  0  0  0  0  0  0
   14.9982  -10.2045   27.0480 C   0  0  2  0  0  0  0  0  0  0  0  0
   13.9065   -3.7559   25.7610 F   0  0  0  0  0  0  0  0  0  0  0  0
   18.0074   -6.4672   27.2460 N   0  0  0  0  0  0  0  0  0  0  0  0
   14.1836   -4.8511   22.3837 N   0  0  0  0  0  0  0  0  0  0  0  0
   14.9032  -13.8792   25.7056 N   0  0  0  0  0  0  0  0  0  0  0  0
   13.9800   -9.3537   27.6568 N   0  0  0  0  0  0  0  0  0  0  0  0
   15.9579   -8.2546   26.1648 O   0  0  0  0  0  0  0  0  0  0  0  0
   17.0715   -9.7155   23.7787 O   0  0  0  0  0  0  0  0  0  0  0  0
   16.9650  -12.6061   24.0255 O   0  0  0  0  0  0  0  0  0  0  0  0
   16.3707   -4.1195   27.1446 O   0  0  0  0  0  0  0  0  0  0  0  0
   15.5748   -6.8534   24.2450 O   0  0  0  0  0  0  0  0  0  0  0  0
  1  5  1  0  0  0  0
  1 18  1  1  0  0  0
  2 18  1  1  0  0  0
  2  3  1  0  0  0  0
  2 12  1  0  0  0  0
  3 19  1  6  0  0  0
  3  4  1  0  0  0  0
  4 20  1  1  0  0  0
  4 10  1  0  0  0  0
  5  6  1  0  0  0  0
  5 14  1  1  0  0  0
  6 21  1  6  0  0  0
  7 13  1  1  0  0  0
  7  6  1  0  0  0  0
  8  9  1  6  0  0  0
  8  7  1  0  0  0  0
 10 16  1  6  0  0  0
 11 10  1  0  0  0  0
 12 17  1  6  0  0  0
 12 11  1  0  0  0  0
 15  9  1  0  0  0  0
 22  8  1  0  0  0  0
 22  1  1  0  0  0  0
M  END
>  <CHROM.1>
-175.62704350,57.48614930,58.47415285,15.55869786,-8.12922450,25.47703691
-1.78282103,1.19329857,-2.95840337

>  <Name>
lig.pdb

>  <RI>
0

>  <Rbt.Current_Directory>
/home/itssahil/PROJECTS/Mol_Feturizer/New_Systems/rnas/5bxk

>  <Rbt.Executable>
rbdock ($Id: //depot/dev/client3/rdock/2013.1/src/exe/rbdock.cxx#4 $)

>  <Rbt.Library>
libRbt.so (2013.1, Build901 2013/11/27)

>  <Rbt.Parameter_File>
/export/apps/rDock/src/rDock_2013.1_src/data/scripts/dock_solv.prm

>  <Rbt.Receptor>
prm/pocket_docking_8.prm

>  <SCORE>
-10.5953

>  <SCORE.INTER>
-6.81041

>  <SCORE.INTER.CONST>
1

>  <SCORE.INTER.POLAR>
0

>  <SCORE.INTER.ROT>
3

>  <SCORE.INTER.SOLV>
15.6203

>  <SCORE.INTER.VDW>
-15.347

>  <SCORE.INTER.norm>
-0.309564

>  <SCORE.INTRA>
-3.78494

>  <SCORE.INTRA.DIHEDRAL>
-6.91533

>  <SCORE.INTRA.DIHEDRAL.0>
7.18044

>  <SCORE.INTRA.POLAR>
0

>  <SCORE.INTRA.POLAR.0>
0

>  <SCORE.INTRA.REPUL>
0

>  <SCORE.INTRA.REPUL.0>
0

>  <SCORE.INTRA.SOLV>
-0.779584

>  <SCORE.INTRA.SOLV.lig_0>
-72.0615

>  <SCORE.INTRA.VDW>
0.0625219

>  <SCORE.INTRA.VDW.0>
-1.54792

>  <SCORE.INTRA.norm>
-0.172043

>  <SCORE.RESTR>
0

>  <SCORE.RESTR.CAVITY>
0

>  <SCORE.RESTR.norm>
0

>  <SCORE.SYSTEM>
0

>  <SCORE.SYSTEM.CONST>
0

>  <SCORE.SYSTEM.DIHEDRAL>
0

>  <SCORE.SYSTEM.SOLV>
0

>  <SCORE.SYSTEM.norm>
0

>  <SCORE.heavy>
22

>  <SCORE.norm>
-0.481607

>  <RMSD>
6.708

$$$$
lig.pdb
 OpenBabel11021811523D
libRbt.so/2013.1/901 2013/11/27
 22 23  0  0  0  0  0  0  0  0999 V2000
   16.5191   -7.3012   25.4100 C   0  0  1  0  0  0  0  0  0  0  0  0
   15.5062   -9.5652   25.7211 C   0  0  1  0  0  0  0  0  0  0  0  0
   16.6901  -10.4548   25.0167 C   0  0  1  0  0  0  0  0  0  0  0  0
   16.0463  -11.8693   24.5928 C   0  0  2  0  0  0  0  0  0  0  0  0
   17.0614   -5.9977   26.1522 C   0  0  1  0  0  0  0  0  0  0  0  0
   15.8607   -5.1379   26.7094 C   0  0  2  0  0  0  0  0  0  0  0  0
   14.9576   -4.6653   25.4671 C   0  0  1  0  0  0  0  0  0  0  0  0
   14.3213   -5.9532   24.7179 C   0  0  1  0  0  0  0  0  0  0  0  0
   13.4201   -5.5901   23.5053 C   0  0  0  0  0  0  0  0  0  0  0  0
   15.5716  -12.6087   25.9382 C   0  0  1  0  0  0  0  0  0  0  0  0
   14.4216  -11.6998   26.6089 C   0  0  0  0  0  0  0  0  0  0  0  0
   14.9943  -10.2711   26.9996 C   0  0  2  0  0  0  0  0  0  0  0  0
   13.8259   -3.8389   25.9005 F   0  0  0  0  0  0  0  0  0  0  0  0
   17.9973   -6.5092   27.2577 N   0  0  0  0  0  0  0  0  0  0  0  0
   14.0713   -4.8379   22.4962 N   0  0  0  0  0  0  0  0  0  0  0  0
   14.9482  -13.9307   25.6142 N   0  0  0  0  0  0  0  0  0  0  0  0
   13.9581   -9.4318   27.5938 N   0  0  0  0  0  0  0  0  0  0  0  0
   15.9653   -8.3070   26.1611 O   0  0  0  0  0  0  0  0  0  0  0  0
   17.1414   -9.7358   23.7856 O   0  0  0  0  0  0  0  0  0  0  0  0
   17.0428  -12.6295   23.9973 O   0  0  0  0  0  0  0  0  0  0  0  0
   16.3165   -4.1908   27.2391 O   0  0  0  0  0  0  0  0  0  0  0  0
   15.5282   -6.8657   24.2829 O   0  0  0  0  0  0  0  0  0  0  0  0
  1  5  1  0  0  0  0
  1 18  1  1  0  0  0
  2 18  1  1  0  0  0
  2  3  1  0  0  0  0
  2 12  1  0  0  0  0
  3 19  1  6  0  0  0
  3  4  1  0  0  0  0
  4 20  1  1  0  0  0
  4 10  1  0  0  0  0
  5  6  1  0  0  0  0
  5 14  1  1  0  0  0
  6 21  1  6  0  0  0
  7 13  1  1  0  0  0
  7  6  1  0  0  0  0
  8  9  1  6  0  0  0
  8  7  1  0  0  0  0
 10 16  1  6  0  0  0
 11 10  1  0  0  0  0
 12 17  1  6  0  0  0
 12 11  1  0  0  0  0
 15  9  1  0  0  0  0
 22  8  1  0  0  0  0
 22  1  1  0  0  0  0
M  END
>  <CHROM.1>
-175.70205586,59.98255221,58.16500843,15.54585161,-8.17379900,25.49543559
-1.79231846,1.12649958,-2.93357416

>  <Name>
lig.pdb

>  <RI>
0

>  <Rbt.Current_Directory>
/home/itssahil/PROJECTS/Mol_Feturizer/New_Systems/rnas/5bxk

>  <Rbt.Executable>
rbdock ($Id: //depot/dev/client3/rdock/2013.1/src/exe/rbdock.cxx#4 $)

>  <Rbt.Library>
libRbt.so (2013.1, Build901 2013/11/27)

>  <Rbt.Parameter_File>
/export/apps/rDock/src/rDock_2013.1_src/data/scripts/dock_solv.prm

>  <Rbt.Receptor>
prm/pocket_docking_6.prm

>  <SCORE>
-10.5426

>  <SCORE.INTER>
-6.73544

>  <SCORE.INTER.CONST>
1

>  <SCORE.INTER.POLAR>
0

>  <SCORE.INTER.ROT>
3

>  <SCORE.INTER.SOLV>
15.5012

>  <SCORE.INTER.VDW>
-15.2574

>  <SCORE.INTER.norm>
-0.306156

>  <SCORE.INTRA>
-3.80717

>  <SCORE.INTRA.DIHEDRAL>
-6.94584

>  <SCORE.INTRA.DIHEDRAL.0>
7.18044

>  <SCORE.INTRA.POLAR>
0

>  <SCORE.INTRA.POLAR.0>
0

>  <SCORE.INTRA.REPUL>
0

>  <SCORE.INTRA.REPUL.0>
0

>  <SCORE.INTRA.SOLV>
-0.741627

>  <SCORE.INTRA.SOLV.lig_0>
-72.0615

>  <SCORE.INTRA.VDW>
0.0365641

>  <SCORE.INTRA.VDW.0>
-1.54792

>  <SCORE.INTRA.norm>
-0.173053

>  <SCORE.RESTR>
0

>  <SCORE.RESTR.CAVITY>
0

>  <SCORE.RESTR.norm>
0

>  <SCORE.SYSTEM>
0

>  <SCORE.SYSTEM.CONST>
0

>  <SCORE.SYSTEM.DIHEDRAL>
0

>  <SCORE.SYSTEM.SOLV>
0

>  <SCORE.SYSTEM.norm>
0

>  <SCORE.heavy>
22

>  <SCORE.norm>
-0.47921

>  <RMSD>
6.710

$$$$
lig.pdb
 OpenBabel11021811523D
libRbt.so/2013.1/901 2013/11/27
 22 23  0  0  0  0  0  0  0  0999 V2000
   17.0613   -7.7270   25.4640 C   0  0  1  0  0  0  0  0  0  0  0  0
   15.8365   -9.8843   25.7707 C   0  0  1  0  0  0  0  0  0  0  0  0
   16.8381  -10.8410   24.8928 C   0  0  1  0  0  0  0  0  0  0  0  0
   16.0075  -12.1558   24.4727 C   0  0  2  0  0  0  0  0  0  0  0  0
   17.7464   -6.4930   26.2069 C   0  0  1  0  0  0  0  0  0  0  0  0
   16.6510   -5.5576   26.8524 C   0  0  2  0  0  0  0  0  0  0  0  0
   15.7229   -4.9786   25.6753 C   0  0  1  0  0  0  0  0  0  0  0  0
   14.9451   -6.1894   24.9311 C   0  0  1  0  0  0  0  0  0  0  0  0
   14.0117   -5.7204   23.7807 C   0  0  0  0  0  0  0  0  0  0  0  0
   15.6044  -12.9269   25.8236 C   0  0  1  0  0  0  0  0  0  0  0  0
   14.6348  -11.9524   26.6653 C   0  0  0  0  0  0  0  0  0  0  0  0
   15.3931  -10.6144   27.0611 C   0  0  2  0  0  0  0  0  0  0  0  0
   14.6867   -4.0784   26.1925 F   0  0  0  0  0  0  0  0  0  0  0  0
   18.6966   -7.1094   27.2447 N   0  0  0  0  0  0  0  0  0  0  0  0
   12.9683   -4.8532   24.1898 N   0  0  0  0  0  0  0  0  0  0  0  0
   14.8145  -14.1582   25.5050 N   0  0  0  0  0  0  0  0  0  0  0  0
   14.5204   -9.7154   27.8105 N   0  0  0  0  0  0  0  0  0  0  0  0
   16.4697   -8.7075   26.2196 O   0  0  0  0  0  0  0  0  0  0  0  0
   17.2281  -10.0949   23.6569 O   0  0  0  0  0  0  0  0  0  0  0  0
   16.8491  -12.9722   23.7306 O   0  0  0  0  0  0  0  0  0  0  0  0
   17.2098   -4.6656   27.3791 O   0  0  0  0  0  0  0  0  0  0  0  0
   16.0491   -7.1813   24.4059 O   0  0  0  0  0  0  0  0  0  0  0  0
  1  5  1  0  0  0  0
  1 18  1  1  0  0  0
  2 18  1  1  0  0  0
  2  3  1  0  0  0  0
  2 12  1  0  0  0  0
  3 19  1  6  0  0  0
  3  4  1  0  0  0  0
  4 20  1  6  0  0  0
  4 10  1  0  0  0  0
  5  6  1  0  0  0  0
  5 14  1  1  0  0  0
  6 21  1  6  0  0  0
  7 13  1  1  0  0  0
  7  6  1  0  0  0  0
  8  9  1  6  0  0  0
  8  7  1  0  0  0  0
 10 16  1  6  0  0  0
 11 10  1  0  0  0  0
 12 17  1  6  0  0  0
 12 11  1  0  0  0  0
 15  9  1  0  0  0  0
 22  8  1  0  0  0  0
 22  1  1  0  0  0  0
M  END
>  <CHROM.1>
-178.69568500,58.84822963,-61.08942858,15.90550090,-8.49977648,25.62186201
-1.60226854,0.57060379,-3.04993260

>  <Name>
lig.pdb

>  <RI>
0

>  <Rbt.Current_Directory>
/home/itssahil/PROJECTS/Mol_Feturizer/New_Systems/rnas/5bxk

>  <Rbt.Executable>
rbdock ($Id: //depot/dev/client3/rdock/2013.1/src/exe/rbdock.cxx#4 $)

>  <Rbt.Library>
libRbt.so (2013.1, Build901 2013/11/27)

>  <Rbt.Parameter_File>
/export/apps/rDock/src/rDock_2013.1_src/data/scripts/dock_solv.prm

>  <Rbt.Receptor>
prm/pocket_docking_6.prm

>  <SCORE>
-10.4332

>  <SCORE.INTER>
-6.61706

>  <SCORE.INTER.CONST>
1

>  <SCORE.INTER.POLAR>
0

>  <SCORE.INTER.ROT>
3

>  <SCORE.INTER.SOLV>
15.3251

>  <SCORE.INTER.VDW>
-15.1197

>  <SCORE.INTER.norm>
-0.300775

>  <SCORE.INTRA>
-3.81615

>  <SCORE.INTRA.DIHEDRAL>
-7.02633

>  <SCORE.INTRA.DIHEDRAL.0>
7.18044

>  <SCORE.INTRA.POLAR>
0

>  <SCORE.INTRA.POLAR.0>
0

>  <SCORE.INTRA.REPUL>
0

>  <SCORE.INTRA.REPUL.0>
0

>  <SCORE.INTRA.SOLV>
-0.891509

>  <SCORE.INTRA.SOLV.lig_0>
-72.0615

>  <SCORE.INTRA.VDW>
0.142771

>  <SCORE.INTRA.VDW.0>
-1.54792

>  <SCORE.INTRA.norm>
-0.173461

>  <SCORE.RESTR>
0

>  <SCORE.RESTR.CAVITY>
0

>  <SCORE.RESTR.norm>
0

>  <SCORE.SYSTEM>
0

>  <SCORE.SYSTEM.CONST>
0

>  <SCORE.SYSTEM.DIHEDRAL>
0

>  <SCORE.SYSTEM.SOLV>
0

>  <SCORE.SYSTEM.norm>
0

>  <SCORE.heavy>
22

>  <SCORE.norm>
-0.474237

>  <RMSD>
6.710

$$$$
lig.pdb
 OpenBabel11021811523D
libRbt.so/2013.1/901 2013/11/27
 22 23  0  0  0  0  0  0  0  0999 V2000
   14.8496   -7.0759   26.6759 C   0  0  1  0  0  0  0  0  0  0  0  0
   15.4811   -9.3978   25.9988 C   0  0  1  0  0  0  0  0  0  0  0  0
   14.6729  -10.7802   25.6451 C   0  0  1  0  0  0  0  0  0  0  0  0
   15.7531  -11.9744   25.5976 C   0  0  2  0  0  0  0  0  0  0  0  0
   14.7850   -7.0307   28.2689 C   0  0  1  0  0  0  0  0  0  0  0  0
   13.2985   -7.2106   28.7682 C   0  0  2  0  0  0  0  0  0  0  0  0
   12.4223   -5.9900   28.1984 C   0  0  1  0  0  0  0  0  0  0  0  0
   12.3952   -6.0306   26.5790 C   0  0  1  0  0  0  0  0  0  0  0  0
   11.5584   -4.8890   25.9381 C   0  0  0  0  0  0  0  0  0  0  0  0
   16.7794  -11.6527   24.4038 C   0  0  1  0  0  0  0  0  0  0  0  0
   17.5422  -10.2830   24.7783 C   0  0  0  0  0  0  0  0  0  0  0  0
   16.5110   -9.0803   24.8882 C   0  0  2  0  0  0  0  0  0  0  0  0
   11.0250   -6.0721   28.6371 F   0  0  0  0  0  0  0  0  0  0  0  0
   15.7206   -8.1485   28.7537 N   0  0  0  0  0  0  0  0  0  0  0  0
   11.6092   -4.8493   24.5225 N   0  0  0  0  0  0  0  0  0  0  0  0
   17.8235  -12.7217   24.3118 N   0  0  0  0  0  0  0  0  0  0  0  0
   17.1874   -7.8362   25.2431 N   0  0  0  0  0  0  0  0  0  0  0  0
   14.6335   -8.2721   26.0395 O   0  0  0  0  0  0  0  0  0  0  0  0
   13.7008  -11.0457   26.7500 O   0  0  0  0  0  0  0  0  0  0  0  0
   15.0772  -13.1484   25.2968 O   0  0  0  0  0  0  0  0  0  0  0  0
   13.3096   -7.1634   29.9442 O   0  0  0  0  0  0  0  0  0  0  0  0
   13.8940   -5.9818   26.1000 O   0  0  0  0  0  0  0  0  0  0  0  0
  1  5  1  0  0  0  0
  1 18  1  6  0  0  0
  2 18  1  6  0  0  0
  2  3  1  0  0  0  0
  2 12  1  0  0  0  0
  3 19  1  1  0  0  0
  3  4  1  0  0  0  0
  4 20  1  6  0  0  0
  4 10  1  0  0  0  0
  5  6  1  0  0  0  0
  5 14  1  1  0  0  0
  6 21  1  1  0  0  0
  7 13  1  1  0  0  0
  7  6  1  0  0  0  0
  8  9  1  6  0  0  0
  8  7  1  0  0  0  0
 10 16  1  1  0  0  0
 11 10  1  0  0  0  0
 12 17  1  1  0  0  0
 12 11  1  0  0  0  0
 15  9  1  0  0  0  0
 22  8  1  0  0  0  0
 22  1  1  0  0  0  0
M  END
>  <CHROM.1>
-71.40901952,158.33763482,175.36031839,14.47253766,-8.46078642,26.46993300
-2.84815924,-0.95456337,2.33428123

>  <Name>
lig.pdb

>  <RI>
0

>  <Rbt.Current_Directory>
/home/itssahil/PROJECTS/Mol_Feturizer/New_Systems/rnas/5bxk

>  <Rbt.Executable>
rbdock ($Id: //depot/dev/client3/rdock/2013.1/src/exe/rbdock.cxx#4 $)

>  <Rbt.Library>
libRbt.so (2013.1, Build901 2013/11/27)

>  <Rbt.Parameter_File>
/export/apps/rDock/src/rDock_2013.1_src/data/scripts/dock_solv.prm

>  <Rbt.Receptor>
prm/pocket_docking_7.prm

>  <SCORE>
-7.66299

>  <SCORE.INTER>
-6.60414

>  <SCORE.INTER.CONST>
1

>  <SCORE.INTER.POLAR>
0

>  <SCORE.INTER.ROT>
3

>  <SCORE.INTER.SOLV>
14.0169

>  <SCORE.INTER.VDW>
-14.6751

>  <SCORE.INTER.norm>
-0.300188

>  <SCORE.INTRA>
-1.05885

>  <SCORE.INTRA.DIHEDRAL>
-4.29048

>  <SCORE.INTRA.DIHEDRAL.0>
7.18044

>  <SCORE.INTRA.POLAR>
0

>  <SCORE.INTRA.POLAR.0>
0

>  <SCORE.INTRA.REPUL>
0

>  <SCORE.INTRA.REPUL.0>
0

>  <SCORE.INTRA.SOLV>
1.53728

>  <SCORE.INTRA.SOLV.lig_0>
-72.0615

>  <SCORE.INTRA.VDW>
0.317745

>  <SCORE.INTRA.VDW.0>
-1.54792

>  <SCORE.INTRA.norm>
-0.0481297

>  <SCORE.RESTR>
0

>  <SCORE.RESTR.CAVITY>
0

>  <SCORE.RESTR.norm>
0

>  <SCORE.SYSTEM>
0

>  <SCORE.SYSTEM.CONST>
0

>  <SCORE.SYSTEM.DIHEDRAL>
0

>  <SCORE.SYSTEM.SOLV>
0

>  <SCORE.SYSTEM.norm>
0

>  <SCORE.heavy>
22

>  <SCORE.norm>
-0.348318

>  <RMSD>
6.712

$$$$
lig.pdb
 OpenBabel11021811523D
libRbt.so/2013.1/901 2013/11/27
 22 23  0  0  0  0  0  0  0  0999 V2000
   18.8300   -8.7942   26.6096 C   0  0  1  0  0  0  0  0  0  0  0  0
   16.9896  -10.3566   25.9612 C   0  0  1  0  0  0  0  0  0  0  0  0
   17.8541  -11.6542   25.4530 C   0  0  1  0  0  0  0  0  0  0  0  0
   16.9115  -12.5070   24.4634 C   0  0  2  0  0  0  0  0  0  0  0  0
   19.5577   -8.0672   27.8286 C   0  0  1  0  0  0  0  0  0  0  0  0
   18.6788   -6.8705   28.3641 C   0  0  2  0  0  0  0  0  0  0  0  0
   18.5038   -5.8008   27.1777 C   0  0  1  0  0  0  0  0  0  0  0  0
   17.7039   -6.4691   25.9373 C   0  0  1  0  0  0  0  0  0  0  0  0
   17.4780   -5.5004   24.7435 C   0  0  0  0  0  0  0  0  0  0  0  0
   15.6528  -13.0238   25.3183 C   0  0  1  0  0  0  0  0  0  0  0  0
   14.8378  -11.7238   25.8125 C   0  0  0  0  0  0  0  0  0  0  0  0
   15.7435  -10.8200   26.7532 C   0  0  2  0  0  0  0  0  0  0  0  0
   17.7123   -4.6414   27.6028 F   0  0  0  0  0  0  0  0  0  0  0  0
   19.7912   -9.1594   28.8831 N   0  0  0  0  0  0  0  0  0  0  0  0
   16.5937   -4.4278   25.0189 N   0  0  0  0  0  0  0  0  0  0  0  0
   14.7243  -13.8165   24.4517 N   0  0  0  0  0  0  0  0  0  0  0  0
   15.0221   -9.6302   27.1950 N   0  0  0  0  0  0  0  0  0  0  0  0
   17.7107   -9.5465   26.8619 O   0  0  0  0  0  0  0  0  0  0  0  0
   19.0375  -11.1534   24.6881 O   0  0  0  0  0  0  0  0  0  0  0  0
   17.6353  -13.6087   24.0301 O   0  0  0  0  0  0  0  0  0  0  0  0
   19.2637   -6.3693   29.2540 O   0  0  0  0  0  0  0  0  0  0  0  0
   18.5268   -7.7376   25.4990 O   0  0  0  0  0  0  0  0  0  0  0  0
  1  5  1  0  0  0  0
  1 18  1  1  0  0  0
  2 18  1  1  0  0  0
  2  3  1  0  0  0  0
  2 12  1  0  0  0  0
  3 19  1  6  0  0  0
  3  4  1  0  0  0  0
  4 20  1  1  0  0  0
  4 10  1  0  0  0  0
  5  6  1  0  0  0  0
  5 14  1  1  0  0  0
  6 21  1  1  0  0  0
  7 13  1  1  0  0  0
  7  6  1  0  0  0  0
  8  9  1  6  0  0  0
  8  7  1  0  0  0  0
 10 16  1  6  0  0  0
 11 10  1  0  0  0  0
 12 17  1  6  0  0  0
 12 11  1  0  0  0  0
 15  9  1  0  0  0  0
 22  8  1  0  0  0  0
 22  1  1  0  0  0  0
M  END
>  <CHROM.1>
-174.05770603,66.64900884,-67.46941912,17.51767315,-9.10295053,26.27948407
-1.22107296,0.69388929,-3.05623651

>  <Name>
lig.pdb

>  <RI>
0

>  <Rbt.Current_Directory>
/home/itssahil/PROJECTS/Mol_Feturizer/New_Systems/rnas/5bxk

>  <Rbt.Executable>
rbdock ($Id: //depot/dev/client3/rdock/2013.1/src/exe/rbdock.cxx#4 $)

>  <Rbt.Library>
libRbt.so (2013.1, Build901 2013/11/27)

>  <Rbt.Parameter_File>
/export/apps/rDock/src/rDock_2013.1_src/data/scripts/dock_solv.prm

>  <Rbt.Receptor>
prm/pocket_docking_3.prm

>  <SCORE>
-8.27227

>  <SCORE.INTER>
-4.6771

>  <SCORE.INTER.CONST>
1

>  <SCORE.INTER.POLAR>
0

>  <SCORE.INTER.ROT>
3

>  <SCORE.INTER.SOLV>
15.9528

>  <SCORE.INTER.VDW>
-14.0357

>  <SCORE.INTER.norm>
-0.212595

>  <SCORE.INTRA>
-3.59517

>  <SCORE.INTRA.DIHEDRAL>
-6.46489

>  <SCORE.INTRA.DIHEDRAL.0>
7.18044

>  <SCORE.INTRA.POLAR>
0

>  <SCORE.INTRA.POLAR.0>
0

>  <SCORE.INTRA.REPUL>
0

>  <SCORE.INTRA.REPUL.0>
0

>  <SCORE.INTRA.SOLV>
-0.860897

>  <SCORE.INTRA.SOLV.lig_0>
-72.0615

>  <SCORE.INTRA.VDW>
0.0677258

>  <SCORE.INTRA.VDW.0>
-1.54792

>  <SCORE.INTRA.norm>
-0.163417

>  <SCORE.RESTR>
0

>  <SCORE.RESTR.CAVITY>
0

>  <SCORE.RESTR.norm>
0

>  <SCORE.SYSTEM>
0

>  <SCORE.SYSTEM.CONST>
0

>  <SCORE.SYSTEM.DIHEDRAL>
0

>  <SCORE.SYSTEM.SOLV>
0

>  <SCORE.SYSTEM.norm>
0

>  <SCORE.heavy>
22

>  <SCORE.norm>
-0.376012

>  <RMSD>
6.713

$$$$
lig.pdb
 OpenBabel11021811523D
libRbt.so/2013.1/901 2013/11/27
 22 23  0  0  0  0  0  0  0  0999 V2000
   17.3126   -7.7464   25.6260 C   0  0  1  0  0  0  0  0  0  0  0  0
   15.9427   -9.8133   25.9419 C   0  0  1  0  0  0  0  0  0  0  0  0
   16.8474  -10.8467   25.0459 C   0  0  1  0  0  0  0  0  0  0  0  0
   15.9027  -12.0842   24.6322 C   0  0  2  0  0  0  0  0  0  0  0  0
   18.3395   -6.7534   26.3356 C   0  0  1  0  0  0  0  0  0  0  0  0
   17.5715   -5.7311   27.2611 C   0  0  2  0  0  0  0  0  0  0  0  0
   16.5868   -4.8564   26.3406 C   0  0  1  0  0  0  0  0  0  0  0  0
   15.4746   -5.8105   25.6494 C   0  0  1  0  0  0  0  0  0  0  0  0
   14.4681   -5.0457   24.7458 C   0  0  0  0  0  0  0  0  0  0  0  0
   15.4545  -12.8256   25.9856 C   0  0  1  0  0  0  0  0  0  0  0  0
   14.5827  -11.7769   26.8451 C   0  0  0  0  0  0  0  0  0  0  0  0
   15.4570  -10.5101   27.2356 C   0  0  2  0  0  0  0  0  0  0  0  0
   15.8474   -3.8625   27.1261 F   0  0  0  0  0  0  0  0  0  0  0  0
   19.3146   -7.6509   27.1123 N   0  0  0  0  0  0  0  0  0  0  0  0
   13.4363   -5.8526   24.2050 N   0  0  0  0  0  0  0  0  0  0  0  0
   14.5587  -13.9838   25.6732 N   0  0  0  0  0  0  0  0  0  0  0  0
   14.6742   -9.5444   28.0010 N   0  0  0  0  0  0  0  0  0  0  0  0
   16.6795   -8.6968   26.3866 O   0  0  0  0  0  0  0  0  0  0  0  0
   17.2820  -10.1297   23.8076 O   0  0  0  0  0  0  0  0  0  0  0  0
   16.6617  -12.9649   23.8748 O   0  0  0  0  0  0  0  0  0  0  0  0
   18.3734   -5.0231   27.7520 O   0  0  0  0  0  0  0  0  0  0  0  0
   16.2604   -6.9047   24.8347 O   0  0  0  0  0  0  0  0  0  0  0  0
  1  5  1  0  0  0  0
  1 18  1  1  0  0  0
  2 18  1  1  0  0  0
  2  3  1  0  0  0  0
  2 12  1  0  0  0  0
  3 19  1  6  0  0  0
  3  4  1  0  0  0  0
  4 20  1  6  0  0  0
  4 10  1  0  0  0  0
  5  6  1  0  0  0  0
  5 14  1  1  0  0  0
  6 21  1  6  0  0  0
  7 13  1  1  0  0  0
  7  6  1  0  0  0  0
  8  9  1  6  0  0  0
  8  7  1  0  0  0  0
 10 16  1  6  0  0  0
 11 10  1  0  0  0  0
 12 17  1  6  0  0  0
 12 11  1  0  0  0  0
 15  9  1  0  0  0  0
 22  8  1  0  0  0  0
 22  1  1  0  0  0  0
M  END
>  <CHROM.1>
-167.13790973,60.69402572,-176.02891539,16.24023190,-8.49083944,25.92574802
-1.44124909,0.37852195,-3.04818419

>  <Name>
lig.pdb

>  <RI>
0

>  <Rbt.Current_Directory>
/home/itssahil/PROJECTS/Mol_Feturizer/New_Systems/rnas/5bxk

>  <Rbt.Executable>
rbdock ($Id: //depot/dev/client3/rdock/2013.1/src/exe/rbdock.cxx#4 $)

>  <Rbt.Library>
libRbt.so (2013.1, Build901 2013/11/27)

>  <Rbt.Parameter_File>
/export/apps/rDock/src/rDock_2013.1_src/data/scripts/dock_solv.prm

>  <Rbt.Receptor>
prm/pocket_docking_5.prm

>  <SCORE>
-8.3308

>  <SCORE.INTER>
-4.44626

>  <SCORE.INTER.CONST>
1

>  <SCORE.INTER.POLAR>
0

>  <SCORE.INTER.ROT>
3

>  <SCORE.INTER.SOLV>
18.3473

>  <SCORE.INTER.VDW>
-14.68

>  <SCORE.INTER.norm>
-0.202103

>  <SCORE.INTRA>
-3.88454

>  <SCORE.INTRA.DIHEDRAL>
-6.22834

>  <SCORE.INTRA.DIHEDRAL.0>
7.18044

>  <SCORE.INTRA.POLAR>
0

>  <SCORE.INTRA.POLAR.0>
0

>  <SCORE.INTRA.REPUL>
0

>  <SCORE.INTRA.REPUL.0>
0

>  <SCORE.INTRA.SOLV>
-1.78232

>  <SCORE.INTRA.SOLV.lig_0>
-72.0615

>  <SCORE.INTRA.VDW>
0.120794

>  <SCORE.INTRA.VDW.0>
-1.54792

>  <SCORE.INTRA.norm>
-0.17657

>  <SCORE.RESTR>
0

>  <SCORE.RESTR.CAVITY>
0

>  <SCORE.RESTR.norm>
0

>  <SCORE.SYSTEM>
0

>  <SCORE.SYSTEM.CONST>
0

>  <SCORE.SYSTEM.DIHEDRAL>
0

>  <SCORE.SYSTEM.SOLV>
0

>  <SCORE.SYSTEM.norm>
0

>  <SCORE.heavy>
22

>  <SCORE.norm>
-0.378673

>  <RMSD>
6.717

$$$$
lig.pdb
 OpenBabel11021811523D
libRbt.so/2013.1/901 2013/11/27
 22 23  0  0  0  0  0  0  0  0999 V2000
   17.1882   -7.7241   25.4638 C   0  0  1  0  0  0  0  0  0  0  0  0
   15.8426   -9.8069   25.7792 C   0  0  1  0  0  0  0  0  0  0  0  0
   16.8257  -10.8189   24.9433 C   0  0  1  0  0  0  0  0  0  0  0  0
   15.9541  -12.1087   24.5289 C   0  0  2  0  0  0  0  0  0  0  0  0
   18.1399   -6.6768   26.1998 C   0  0  1  0  0  0  0  0  0  0  0  0
   17.2850   -5.6241   27.0074 C   0  0  2  0  0  0  0  0  0  0  0  0
   16.3637   -4.8162   25.9678 C   0  0  1  0  0  0  0  0  0  0  0  0
   15.3249   -5.8254   25.2415 C   0  0  1  0  0  0  0  0  0  0  0  0
   14.3822   -5.1268   24.2228 C   0  0  0  0  0  0  0  0  0  0  0  0
   15.4908  -12.8367   25.8844 C   0  0  1  0  0  0  0  0  0  0  0  0
   14.5411  -11.8089   26.6845 C   0  0  0  0  0  0  0  0  0  0  0  0
   15.3419  -10.4936   27.0725 C   0  0  2  0  0  0  0  0  0  0  0  0
   15.5490   -3.7984   26.6399 F   0  0  0  0  0  0  0  0  0  0  0  0
   19.0635   -7.5150   27.0965 N   0  0  0  0  0  0  0  0  0  0  0  0
   13.4302   -5.9867   23.6208 N   0  0  0  0  0  0  0  0  0  0  0  0
   14.6608  -14.0426   25.5708 N   0  0  0  0  0  0  0  0  0  0  0  0
   14.4883   -9.5469   27.7841 N   0  0  0  0  0  0  0  0  0  0  0  0
   16.5110   -8.6468   26.2204 O   0  0  0  0  0  0  0  0  0  0  0  0
   17.2724  -10.1131   23.7029 O   0  0  0  0  0  0  0  0  0  0  0  0
   16.7798  -12.9715   23.8223 O   0  0  0  0  0  0  0  0  0  0  0  0
   18.0343   -4.8768   27.5226 O   0  0  0  0  0  0  0  0  0  0  0  0
   16.1898   -6.9439   24.5492 O   0  0  0  0  0  0  0  0  0  0  0  0
  1  5  1  0  0  0  0
  1 18  1  1  0  0  0
  2 18  1  1  0  0  0
  2  3  1  0  0  0  0
  2 12  1  0  0  0  0
  3 19  1  6  0  0  0
  3  4  1  0  0  0  0
  4 20  1  6  0  0  0
  4 10  1  0  0  0  0
  5  6  1  0  0  0  0
  5 14  1  1  0  0  0
  6 21  1  6  0  0  0
  7 13  1  1  0  0  0
  7  6  1  0  0  0  0
  8  9  1  6  0  0  0
  8  7  1  0  0  0  0
 10 16  1  6  0  0  0
 11 10  1  0  0  0  0
 12 17  1  6  0  0  0
 12 11  1  0  0  0  0
 15  9  1  0  0  0  0
 22  8  1  0  0  0  0
 22  1  1  0  0  0  0
M  END
>  <CHROM.1>
-166.31025001,56.92287205,-177.47433539,16.13012142,-8.47588951,25.70005024
-1.47050616,0.54153451,-3.09051914

>  <Name>
lig.pdb

>  <RI>
0

>  <Rbt.Current_Directory>
/home/itssahil/PROJECTS/Mol_Feturizer/New_Systems/rnas/5bxk

>  <Rbt.Executable>
rbdock ($Id: //depot/dev/client3/rdock/2013.1/src/exe/rbdock.cxx#4 $)

>  <Rbt.Library>
libRbt.so (2013.1, Build901 2013/11/27)

>  <Rbt.Parameter_File>
/export/apps/rDock/src/rDock_2013.1_src/data/scripts/dock_solv.prm

>  <Rbt.Receptor>
prm/pocket_docking_7.prm

>  <SCORE>
-8.51736

>  <SCORE.INTER>
-4.71341

>  <SCORE.INTER.CONST>
1

>  <SCORE.INTER.POLAR>
0

>  <SCORE.INTER.ROT>
3

>  <SCORE.INTER.SOLV>
19.4678

>  <SCORE.INTER.VDW>
-15.2315

>  <SCORE.INTER.norm>
-0.214246

>  <SCORE.INTRA>
-3.80395

>  <SCORE.INTRA.DIHEDRAL>
-6.122

>  <SCORE.INTRA.DIHEDRAL.0>
7.18044

>  <SCORE.INTRA.POLAR>
0

>  <SCORE.INTRA.POLAR.0>
0

>  <SCORE.INTRA.REPUL>
0

>  <SCORE.INTRA.REPUL.0>
0

>  <SCORE.INTRA.SOLV>
-1.81508

>  <SCORE.INTRA.SOLV.lig_0>
-72.0615

>  <SCORE.INTRA.VDW>
0.164585

>  <SCORE.INTRA.VDW.0>
-1.54792

>  <SCORE.INTRA.norm>
-0.172907

>  <SCORE.RESTR>
0

>  <SCORE.RESTR.CAVITY>
0

>  <SCORE.RESTR.norm>
0

>  <SCORE.SYSTEM>
0

>  <SCORE.SYSTEM.CONST>
0

>  <SCORE.SYSTEM.DIHEDRAL>
0

>  <SCORE.SYSTEM.SOLV>
0

>  <SCORE.SYSTEM.norm>
0

>  <SCORE.heavy>
22

>  <SCORE.norm>
-0.387153

>  <RMSD>
6.717

$$$$
lig.pdb
 OpenBabel11021811523D
libRbt.so/2013.1/901 2013/11/27
 22 23  0  0  0  0  0  0  0  0999 V2000
   16.2644   -9.0910   27.0465 C   0  0  1  0  0  0  0  0  0  0  0  0
   16.2615  -11.2709   25.8232 C   0  0  1  0  0  0  0  0  0  0  0  0
   14.9074  -12.0342   26.3455 C   0  0  1  0  0  0  0  0  0  0  0  0
   15.1378  -13.6168   26.1516 C   0  0  2  0  0  0  0  0  0  0  0  0
   15.9499   -7.5313   26.9348 C   0  0  1  0  0  0  0  0  0  0  0  0
   17.0883   -6.7932   26.1281 C   0  0  2  0  0  0  0  0  0  0  0  0
   18.4704   -6.9675   26.9292 C   0  0  1  0  0  0  0  0  0  0  0  0
   18.8750   -8.5342   27.0100 C   0  0  1  0  0  0  0  0  0  0  0  0
   20.2095   -8.7982   27.7609 C   0  0  0  0  0  0  0  0  0  0  0  0
   15.3152  -13.8918   24.5784 C   0  0  1  0  0  0  0  0  0  0  0  0
   16.6439  -13.1153   24.0989 C   0  0  0  0  0  0  0  0  0  0  0  0
   16.4871  -11.5503   24.3179 C   0  0  2  0  0  0  0  0  0  0  0  0
   19.5807   -6.2886   26.2526 F   0  0  0  0  0  0  0  0  0  0  0  0
   14.5744   -7.4331   26.2580 N   0  0  0  0  0  0  0  0  0  0  0  0
   20.2154   -8.3715   29.1122 N   0  0  0  0  0  0  0  0  0  0  0  0
   15.5477  -15.3492   24.3270 N   0  0  0  0  0  0  0  0  0  0  0  0
   17.6908  -10.8363   23.9023 N   0  0  0  0  0  0  0  0  0  0  0  0
   16.1622   -9.8680   25.9203 O   0  0  0  0  0  0  0  0  0  0  0  0
   14.7412  -11.7405   27.8024 O   0  0  0  0  0  0  0  0  0  0  0  0
   13.9949  -14.2704   26.5898 O   0  0  0  0  0  0  0  0  0  0  0  0
   16.8089   -5.6508   26.0820 O   0  0  0  0  0  0  0  0  0  0  0  0
   17.6712   -9.2774   27.7007 O   0  0  0  0  0  0  0  0  0  0  0  0
  1  5  1  0  0  0  0
  1 18  1  6  0  0  0
  2 18  1  6  0  0  0
  2  3  1  0  0  0  0
  2 12  1  0  0  0  0
  3 19  1  1  0  0  0
  3  4  1  0  0  0  0
  4 20  1  6  0  0  0
  4 10  1  0  0  0  0
  5  6  1  0  0  0  0
  5 14  1  6  0  0  0
  6 21  1  1  0  0  0
  7 13  1  6  0  0  0
  7  6  1  0  0  0  0
  8  9  1  1  0  0  0
  8  7  1  0  0  0  0
 10 16  1  1  0  0  0
 11 10  1  0  0  0  0
 12 17  1  1  0  0  0
 12 11  1  0  0  0  0
 15  9  1  0  0  0  0
 22  8  1  0  0  0  0
 22  1  1  0  0  0  0
M  END
>  <CHROM.1>
-173.03712472,76.35271393,60.59899355,16.78053200,-10.04405912,26.25286861
1.13136112,-0.10325945,0.19325072

>  <Name>
lig.pdb

>  <RI>
0

>  <Rbt.Current_Directory>
/home/itssahil/PROJECTS/Mol_Feturizer/New_Systems/rnas/5bxk

>  <Rbt.Executable>
rbdock ($Id: //depot/dev/client3/rdock/2013.1/src/exe/rbdock.cxx#4 $)

>  <Rbt.Library>
libRbt.so (2013.1, Build901 2013/11/27)

>  <Rbt.Parameter_File>
/export/apps/rDock/src/rDock_2013.1_src/data/scripts/dock_solv.prm

>  <Rbt.Receptor>
prm/pocket_docking_4.prm

>  <SCORE>
-9.66612

>  <SCORE.INTER>
-6.55086

>  <SCORE.INTER.CONST>
1

>  <SCORE.INTER.POLAR>
0

>  <SCORE.INTER.ROT>
3

>  <SCORE.INTER.SOLV>
18.0202

>  <SCORE.INTER.VDW>
-15.974

>  <SCORE.INTER.norm>
-0.297766

>  <SCORE.INTRA>
-3.11526

>  <SCORE.INTRA.DIHEDRAL>
-5.57489

>  <SCORE.INTRA.DIHEDRAL.0>
7.18044

>  <SCORE.INTRA.POLAR>
0

>  <SCORE.INTRA.POLAR.0>
0

>  <SCORE.INTRA.REPUL>
0

>  <SCORE.INTRA.REPUL.0>
0

>  <SCORE.INTRA.SOLV>
-0.358523

>  <SCORE.INTRA.SOLV.lig_0>
-72.0615

>  <SCORE.INTRA.VDW>
-0.148549

>  <SCORE.INTRA.VDW.0>
-1.54792

>  <SCORE.INTRA.norm>
-0.141603

>  <SCORE.RESTR>
0

>  <SCORE.RESTR.CAVITY>
0

>  <SCORE.RESTR.norm>
0

>  <SCORE.SYSTEM>
0

>  <SCORE.SYSTEM.CONST>
0

>  <SCORE.SYSTEM.DIHEDRAL>
0

>  <SCORE.SYSTEM.SOLV>
0

>  <SCORE.SYSTEM.norm>
0

>  <SCORE.heavy>
22

>  <SCORE.norm>
-0.439369

>  <RMSD>
6.721

$$$$
lig.pdb
 OpenBabel11021811523D
libRbt.so/2013.1/901 2013/11/27
 22 23  0  0  0  0  0  0  0  0999 V2000
   18.8653   -8.7797   26.5342 C   0  0  1  0  0  0  0  0  0  0  0  0
   17.0496  -10.3809   25.9113 C   0  0  1  0  0  0  0  0  0  0  0  0
   17.9181  -11.6850   25.4273 C   0  0  1  0  0  0  0  0  0  0  0  0
   16.9808  -12.5549   24.4475 C   0  0  2  0  0  0  0  0  0  0  0  0
   19.6121   -8.0610   27.7466 C   0  0  1  0  0  0  0  0  0  0  0  0
   18.7273   -6.8891   28.3253 C   0  0  2  0  0  0  0  0  0  0  0  0
   18.5036   -5.8026   27.1627 C   0  0  1  0  0  0  0  0  0  0  0  0
   17.6831   -6.4633   25.9318 C   0  0  1  0  0  0  0  0  0  0  0  0
   17.4099   -5.4785   24.7613 C   0  0  0  0  0  0  0  0  0  0  0  0
   15.7194  -13.0599   25.3054 C   0  0  1  0  0  0  0  0  0  0  0  0
   14.9005  -11.7535   25.7756 C   0  0  0  0  0  0  0  0  0  0  0  0
   15.8009  -10.8335   26.7055 C   0  0  2  0  0  0  0  0  0  0  0  0
   17.7039   -4.6644   27.6282 F   0  0  0  0  0  0  0  0  0  0  0  0
   19.8913   -9.1669   28.7756 N   0  0  0  0  0  0  0  0  0  0  0  0
   16.5480   -4.4027   25.0901 N   0  0  0  0  0  0  0  0  0  0  0  0
   14.7956  -13.8677   24.4478 N   0  0  0  0  0  0  0  0  0  0  0  0
   15.0760   -9.6380   27.1255 N   0  0  0  0  0  0  0  0  0  0  0  0
   17.7658   -9.5555   26.8019 O   0  0  0  0  0  0  0  0  0  0  0  0
   19.1038  -11.1946   24.6593 O   0  0  0  0  0  0  0  0  0  0  0  0
   17.7080  -13.6622   24.0346 O   0  0  0  0  0  0  0  0  0  0  0  0
   19.3266   -6.3931   29.2086 O   0  0  0  0  0  0  0  0  0  0  0  0
   18.5156   -7.7097   25.4503 O   0  0  0  0  0  0  0  0  0  0  0  0
  1  5  1  0  0  0  0
  1 18  1  1  0  0  0
  2 18  1  1  0  0  0
  2  3  1  0  0  0  0
  2 12  1  0  0  0  0
  3 19  1  6  0  0  0
  3  4  1  0  0  0  0
  4 20  1  1  0  0  0
  4 10  1  0  0  0  0
  5  6  1  0  0  0  0
  5 14  1  1  0  0  0
  6 21  1  1  0  0  0
  7 13  1  1  0  0  0
  7  6  1  0  0  0  0
  8  9  1  6  0  0  0
  8  7  1  0  0  0  0
 10 16  1  6  0  0  0
 11 10  1  0  0  0  0
 12 17  1  6  0  0  0
 12 11  1  0  0  0  0
 15  9  1  0  0  0  0
 22  8  1  0  0  0  0
 22  1  1  0  0  0  0
M  END
>  <CHROM.1>
-172.82815517,68.42111550,-65.59479775,17.55557828,-9.11772390,26.25082031
-1.25306320,0.63607373,-3.02225404

>  <Name>
lig.pdb

>  <RI>
0

>  <Rbt.Current_Directory>
/home/itssahil/PROJECTS/Mol_Feturizer/New_Systems/rnas/5bxk

>  <Rbt.Executable>
rbdock ($Id: //depot/dev/client3/rdock/2013.1/src/exe/rbdock.cxx#4 $)

>  <Rbt.Library>
libRbt.so (2013.1, Build901 2013/11/27)

>  <Rbt.Parameter_File>
/export/apps/rDock/src/rDock_2013.1_src/data/scripts/dock_solv.prm

>  <Rbt.Receptor>
prm/pocket_docking_3.prm

>  <SCORE>
-8.21214

>  <SCORE.INTER>
-4.71083

>  <SCORE.INTER.CONST>
1

>  <SCORE.INTER.POLAR>
0

>  <SCORE.INTER.ROT>
3

>  <SCORE.INTER.SOLV>
15.6387

>  <SCORE.INTER.VDW>
-13.9534

>  <SCORE.INTER.norm>
-0.214129

>  <SCORE.INTRA>
-3.50131

>  <SCORE.INTRA.DIHEDRAL>
-6.34793

>  <SCORE.INTRA.DIHEDRAL.0>
7.18044

>  <SCORE.INTRA.POLAR>
0

>  <SCORE.INTRA.POLAR.0>
0

>  <SCORE.INTRA.REPUL>
0

>  <SCORE.INTRA.REPUL.0>
0

>  <SCORE.INTRA.SOLV>
-0.78184

>  <SCORE.INTRA.SOLV.lig_0>
-72.0615

>  <SCORE.INTRA.VDW>
0.0635766

>  <SCORE.INTRA.VDW.0>
-1.54792

>  <SCORE.INTRA.norm>
-0.15915

>  <SCORE.RESTR>
0

>  <SCORE.RESTR.CAVITY>
0

>  <SCORE.RESTR.norm>
0

>  <SCORE.SYSTEM>
0

>  <SCORE.SYSTEM.CONST>
0

>  <SCORE.SYSTEM.DIHEDRAL>
0

>  <SCORE.SYSTEM.SOLV>
0

>  <SCORE.SYSTEM.norm>
0

>  <SCORE.heavy>
22

>  <SCORE.norm>
-0.373279

>  <RMSD>
6.722

$$$$
lig.pdb
 OpenBabel11021811523D
libRbt.so/2013.1/901 2013/11/27
 22 23  0  0  0  0  0  0  0  0999 V2000
   17.6710  -12.4989   23.8827 C   0  0  1  0  0  0  0  0  0  0  0  0
   19.7409  -13.8906   24.0476 C   0  0  1  0  0  0  0  0  0  0  0  0
   20.7042  -13.2227   22.9008 C   0  0  1  0  0  0  0  0  0  0  0  0
   21.7751  -14.3409   22.4561 C   0  0  2  0  0  0  0  0  0  0  0  0
   16.7910  -11.3760   24.5960 C   0  0  1  0  0  0  0  0  0  0  0  0
   15.9981  -11.9862   25.8168 C   0  0  2  0  0  0  0  0  0  0  0  0
   15.0045  -13.1194   25.2590 C   0  0  1  0  0  0  0  0  0  0  0  0
   15.8534  -14.3236   24.5852 C   0  0  1  0  0  0  0  0  0  0  0  0
   14.9717  -15.4743   24.0259 C   0  0  0  0  0  0  0  0  0  0  0  0
   22.6690  -14.6953   23.7435 C   0  0  1  0  0  0  0  0  0  0  0  0
   21.6881  -15.3337   24.8520 C   0  0  0  0  0  0  0  0  0  0  0  0
   20.5785  -14.2846   25.2878 C   0  0  2  0  0  0  0  0  0  0  0  0
   14.2114  -13.7246   26.3343 F   0  0  0  0  0  0  0  0  0  0  0  0
   17.7798  -10.2764   25.0117 N   0  0  0  0  0  0  0  0  0  0  0  0
   14.2359  -16.1799   25.0102 N   0  0  0  0  0  0  0  0  0  0  0  0
   23.6816  -15.7439   23.4022 N   0  0  0  0  0  0  0  0  0  0  0  0
   19.6731  -14.8560   26.2802 N   0  0  0  0  0  0  0  0  0  0  0  0
   18.7751  -12.9868   24.5350 O   0  0  0  0  0  0  0  0  0  0  0  0
   19.8505  -12.8700   21.7247 O   0  0  0  0  0  0  0  0  0  0  0  0
   22.5960  -13.7828   21.4865 O   0  0  0  0  0  0  0  0  0  0  0  0
   15.3648  -11.1194   26.2993 O   0  0  0  0  0  0  0  0  0  0  0  0
   16.7373  -13.6766   23.4545 O   0  0  0  0  0  0  0  0  0  0  0  0
  1  5  1  0  0  0  0
  1 18  1  1  0  0  0
  2 18  1  1  0  0  0
  2  3  1  0  0  0  0
  2 12  1  0  0  0  0
  3 19  1  6  0  0  0
  3  4  1  0  0  0  0
  4 20  1  6  0  0  0
  4 10  1  0  0  0  0
  5  6  1  0  0  0  0
  5 14  1  1  0  0  0
  6 21  1  6  0  0  0
  7 13  1  1  0  0  0
  7  6  1  0  0  0  0
  8  9  1  6  0  0  0
  8  7  1  0  0  0  0
 10 16  1  6  0  0  0
 11 10  1  0  0  0  0
 12 17  1  1  0  0  0
 12 11  1  0  0  0  0
 15  9  1  0  0  0  0
 22  8  1  0  0  0  0
 22  1  1  0  0  0  0
M  END
>  <CHROM.1>
-174.40234295,70.74877876,-64.60530965,18.40223842,-13.61182891,24.32583976
-3.00175543,-0.31960815,3.07749070

>  <Name>
lig.pdb

>  <RI>
0

>  <Rbt.Current_Directory>
/home/itssahil/PROJECTS/Mol_Feturizer/New_Systems/rnas/5bxk

>  <Rbt.Executable>
rbdock ($Id: //depot/dev/client3/rdock/2013.1/src/exe/rbdock.cxx#4 $)

>  <Rbt.Library>
libRbt.so (2013.1, Build901 2013/11/27)

>  <Rbt.Parameter_File>
/export/apps/rDock/src/rDock_2013.1_src/data/scripts/dock_solv.prm

>  <Rbt.Receptor>
prm/pocket_docking_7.prm

>  <SCORE>
-10.9997

>  <SCORE.INTER>
-7.56276

>  <SCORE.INTER.CONST>
1

>  <SCORE.INTER.POLAR>
0

>  <SCORE.INTER.ROT>
3

>  <SCORE.INTER.SOLV>
15.9402

>  <SCORE.INTER.VDW>
-15.9552

>  <SCORE.INTER.norm>
-0.343762

>  <SCORE.INTRA>
-3.43696

>  <SCORE.INTRA.DIHEDRAL>
-6.26657

>  <SCORE.INTRA.DIHEDRAL.0>
7.18044

>  <SCORE.INTRA.POLAR>
0

>  <SCORE.INTRA.POLAR.0>
0

>  <SCORE.INTRA.REPUL>
0

>  <SCORE.INTRA.REPUL.0>
0

>  <SCORE.INTRA.SOLV>
-0.703815

>  <SCORE.INTRA.SOLV.lig_0>
-72.0615

>  <SCORE.INTRA.VDW>
0.0482331

>  <SCORE.INTRA.VDW.0>
-1.54792

>  <SCORE.INTRA.norm>
-0.156225

>  <SCORE.RESTR>
0

>  <SCORE.RESTR.CAVITY>
0

>  <SCORE.RESTR.norm>
0

>  <SCORE.SYSTEM>
0

>  <SCORE.SYSTEM.CONST>
0

>  <SCORE.SYSTEM.DIHEDRAL>
0

>  <SCORE.SYSTEM.SOLV>
0

>  <SCORE.SYSTEM.norm>
0

>  <SCORE.heavy>
22

>  <SCORE.norm>
-0.499987

>  <RMSD>
6.723

$$$$
lig.pdb
 OpenBabel11021811523D
libRbt.so/2013.1/901 2013/11/27
 22 23  0  0  0  0  0  0  0  0999 V2000
   17.0143   -7.7090   25.4444 C   0  0  1  0  0  0  0  0  0  0  0  0
   15.8125   -9.8755   25.7768 C   0  0  1  0  0  0  0  0  0  0  0  0
   16.8258  -10.8465   24.9286 C   0  0  1  0  0  0  0  0  0  0  0  0
   16.0019  -12.1698   24.5223 C   0  0  2  0  0  0  0  0  0  0  0  0
   17.7201   -6.4782   26.1732 C   0  0  1  0  0  0  0  0  0  0  0  0
   16.6429   -5.5419   26.8471 C   0  0  2  0  0  0  0  0  0  0  0  0
   15.6877   -4.9581   25.6942 C   0  0  1  0  0  0  0  0  0  0  0  0
   14.8893   -6.1654   24.9664 C   0  0  1  0  0  0  0  0  0  0  0  0
   13.9294   -5.6917   23.8401 C   0  0  0  0  0  0  0  0  0  0  0  0
   15.5833  -12.9169   25.8819 C   0  0  1  0  0  0  0  0  0  0  0  0
   14.6024  -11.9286   26.6941 C   0  0  0  0  0  0  0  0  0  0  0  0
   15.3543  -10.5827   27.0747 C   0  0  2  0  0  0  0  0  0  0  0  0
   14.6666   -4.0566   26.2384 F   0  0  0  0  0  0  0  0  0  0  0  0
   18.6937   -7.0991   27.1861 N   0  0  0  0  0  0  0  0  0  0  0  0
   12.8591   -4.8773   24.2868 N   0  0  0  0  0  0  0  0  0  0  0  0
   14.7987  -14.1548   25.5762 N   0  0  0  0  0  0  0  0  0  0  0  0
   14.4716   -9.6715   27.7971 N   0  0  0  0  0  0  0  0  0  0  0  0
   16.4389   -8.6899   26.2120 O   0  0  0  0  0  0  0  0  0  0  0  0
   17.2299  -10.1224   23.6841 O   0  0  0  0  0  0  0  0  0  0  0  0
   16.8533  -12.9984   23.8053 O   0  0  0  0  0  0  0  0  0  0  0  0
   17.2163   -4.6523   27.3621 O   0  0  0  0  0  0  0  0  0  0  0  0
   15.9779   -7.1586   24.4124 O   0  0  0  0  0  0  0  0  0  0  0  0
  1  5  1  0  0  0  0
  1 18  1  1  0  0  0
  2 18  1  1  0  0  0
  2  3  1  0  0  0  0
  2 12  1  0  0  0  0
  3 19  1  6  0  0  0
  3  4  1  0  0  0  0
  4 20  1  6  0  0  0
  4 10  1  0  0  0  0
  5  6  1  0  0  0  0
  5 14  1  1  0  0  0
  6 21  1  6  0  0  0
  7 13  1  1  0  0  0
  7  6  1  0  0  0  0
  8  9  1  6  0  0  0
  8  7  1  0  0  0  0
 10 16  1  6  0  0  0
 11 10  1  0  0  0  0
 12 17  1  6  0  0  0
 12 11  1  0  0  0  0
 15  9  1  0  0  0  0
 22  8  1  0  0  0  0
 22  1  1  0  0  0  0
M  END
>  <CHROM.1>
-177.50040109,60.31963461,-64.09277630,15.87526754,-8.48945966,25.64377701
-1.60627601,0.47428485,-3.05398148

>  <Name>
lig.pdb

>  <RI>
0

>  <Rbt.Current_Directory>
/home/itssahil/PROJECTS/Mol_Feturizer/New_Systems/rnas/5bxk

>  <Rbt.Executable>
rbdock ($Id: //depot/dev/client3/rdock/2013.1/src/exe/rbdock.cxx#4 $)

>  <Rbt.Library>
libRbt.so (2013.1, Build901 2013/11/27)

>  <Rbt.Parameter_File>
/export/apps/rDock/src/rDock_2013.1_src/data/scripts/dock_solv.prm

>  <Rbt.Receptor>
prm/pocket_docking_7.prm

>  <SCORE>
-10.4704

>  <SCORE.INTER>
-6.66154

>  <SCORE.INTER.CONST>
1

>  <SCORE.INTER.POLAR>
0

>  <SCORE.INTER.ROT>
3

>  <SCORE.INTER.SOLV>
15.3359

>  <SCORE.INTER.VDW>
-15.153

>  <SCORE.INTER.norm>
-0.302797

>  <SCORE.INTRA>
-3.80885

>  <SCORE.INTRA.DIHEDRAL>
-6.95535

>  <SCORE.INTRA.DIHEDRAL.0>
7.18044

>  <SCORE.INTRA.POLAR>
0

>  <SCORE.INTRA.POLAR.0>
0

>  <SCORE.INTRA.REPUL>
0

>  <SCORE.INTRA.REPUL.0>
0

>  <SCORE.INTRA.SOLV>
-0.911853

>  <SCORE.INTRA.SOLV.lig_0>
-72.0615

>  <SCORE.INTRA.VDW>
0.12475

>  <SCORE.INTRA.VDW.0>
-1.54792

>  <SCORE.INTRA.norm>
-0.17313

>  <SCORE.RESTR>
0

>  <SCORE.RESTR.CAVITY>
0

>  <SCORE.RESTR.norm>
0

>  <SCORE.SYSTEM>
0

>  <SCORE.SYSTEM.CONST>
0

>  <SCORE.SYSTEM.DIHEDRAL>
0

>  <SCORE.SYSTEM.SOLV>
0

>  <SCORE.SYSTEM.norm>
0

>  <SCORE.heavy>
22

>  <SCORE.norm>
-0.475927

>  <RMSD>
6.723

$$$$
lig.pdb
 OpenBabel11021811523D
libRbt.so/2013.1/901 2013/11/27
 22 23  0  0  0  0  0  0  0  0999 V2000
   16.2104   -9.0840   27.0248 C   0  0  1  0  0  0  0  0  0  0  0  0
   16.2068  -11.2714   25.8150 C   0  0  1  0  0  0  0  0  0  0  0  0
   14.8602  -12.0374   26.3527 C   0  0  1  0  0  0  0  0  0  0  0  0
   15.0961  -13.6201   26.1667 C   0  0  2  0  0  0  0  0  0  0  0  0
   15.9235   -7.5201   26.8984 C   0  0  1  0  0  0  0  0  0  0  0  0
   17.0796   -6.8084   26.0933 C   0  0  2  0  0  0  0  0  0  0  0  0
   18.4533   -6.9997   26.9049 C   0  0  1  0  0  0  0  0  0  0  0  0
   18.8303   -8.5724   27.0011 C   0  0  1  0  0  0  0  0  0  0  0  0
   20.1551   -8.8531   27.7630 C   0  0  0  0  0  0  0  0  0  0  0  0
   15.2622  -13.9040   24.5938 C   0  0  1  0  0  0  0  0  0  0  0  0
   16.5837  -13.1248   24.0991 C   0  0  0  0  0  0  0  0  0  0  0  0
   16.4218  -11.5591   24.3097 C   0  0  2  0  0  0  0  0  0  0  0  0
   19.5795   -6.3456   26.2302 F   0  0  0  0  0  0  0  0  0  0  0  0
   14.5543   -7.4040   26.2118 N   0  0  0  0  0  0  0  0  0  0  0  0
   20.1625   -8.4083   29.1084 N   0  0  0  0  0  0  0  0  0  0  0  0
   15.4992  -15.3619   24.3495 N   0  0  0  0  0  0  0  0  0  0  0  0
   17.6190  -10.8424   23.8803 N   0  0  0  0  0  0  0  0  0  0  0  0
   16.1021   -9.8685   25.9044 O   0  0  0  0  0  0  0  0  0  0  0  0
   14.7042  -11.7355   27.8090 O   0  0  0  0  0  0  0  0  0  0  0  0
   13.9596  -14.2761   26.6178 O   0  0  0  0  0  0  0  0  0  0  0  0
   16.8202   -5.6618   26.0360 O   0  0  0  0  0  0  0  0  0  0  0  0
   17.6095   -9.2891   27.6899 O   0  0  0  0  0  0  0  0  0  0  0  0
  1  5  1  0  0  0  0
  1 18  1  6  0  0  0
  2 18  1  6  0  0  0
  2  3  1  0  0  0  0
  2 12  1  0  0  0  0
  3 19  1  1  0  0  0
  3  4  1  0  0  0  0
  4 20  1  6  0  0  0
  4 10  1  0  0  0  0
  5  6  1  0  0  0  0
  5 14  1  6  0  0  0
  6 21  1  1  0  0  0
  7 13  1  6  0  0  0
  7  6  1  0  0  0  0
  8  9  1  1  0  0  0
  8  7  1  0  0  0  0
 10 16  1  1  0  0  0
 11 10  1  0  0  0  0
 12 17  1  1  0  0  0
 12 11  1  0  0  0  0
 15  9  1  0  0  0  0
 22  8  1  0  0  0  0
 22  1  1  0  0  0  0
M  END
>  <CHROM.1>
-174.54784752,76.38505520,60.24560512,16.74018451,-10.05676669,26.24310091
1.12644870,-0.12957248,0.17469879

>  <Name>
lig.pdb

>  <RI>
0

>  <Rbt.Current_Directory>
/home/itssahil/PROJECTS/Mol_Feturizer/New_Systems/rnas/5bxk

>  <Rbt.Executable>
rbdock ($Id: //depot/dev/client3/rdock/2013.1/src/exe/rbdock.cxx#4 $)

>  <Rbt.Library>
libRbt.so (2013.1, Build901 2013/11/27)

>  <Rbt.Parameter_File>
/export/apps/rDock/src/rDock_2013.1_src/data/scripts/dock_solv.prm

>  <Rbt.Receptor>
prm/pocket_docking_6.prm

>  <SCORE>
-9.70389

>  <SCORE.INTER>
-6.56273

>  <SCORE.INTER.CONST>
1

>  <SCORE.INTER.POLAR>
0

>  <SCORE.INTER.ROT>
3

>  <SCORE.INTER.SOLV>
18.4441

>  <SCORE.INTER.VDW>
-16.1232

>  <SCORE.INTER.norm>
-0.298306

>  <SCORE.INTRA>
-3.14116

>  <SCORE.INTRA.DIHEDRAL>
-5.65896

>  <SCORE.INTRA.DIHEDRAL.0>
7.18044

>  <SCORE.INTRA.POLAR>
0

>  <SCORE.INTRA.POLAR.0>
0

>  <SCORE.INTRA.REPUL>
0

>  <SCORE.INTRA.REPUL.0>
0

>  <SCORE.INTRA.SOLV>
-0.361737

>  <SCORE.INTRA.SOLV.lig_0>
-72.0615

>  <SCORE.INTRA.VDW>
-0.130817

>  <SCORE.INTRA.VDW.0>
-1.54792

>  <SCORE.INTRA.norm>
-0.14278

>  <SCORE.RESTR>
0

>  <SCORE.RESTR.CAVITY>
0

>  <SCORE.RESTR.norm>
0

>  <SCORE.SYSTEM>
0

>  <SCORE.SYSTEM.CONST>
0

>  <SCORE.SYSTEM.DIHEDRAL>
0

>  <SCORE.SYSTEM.SOLV>
0

>  <SCORE.SYSTEM.norm>
0

>  <SCORE.heavy>
22

>  <SCORE.norm>
-0.441086

>  <RMSD>
6.728

$$$$
lig.pdb
 OpenBabel11021811523D
libRbt.so/2013.1/901 2013/11/27
 22 23  0  0  0  0  0  0  0  0999 V2000
   17.3398   -7.7005   25.6418 C   0  0  1  0  0  0  0  0  0  0  0  0
   16.0064   -9.7993   25.8982 C   0  0  1  0  0  0  0  0  0  0  0  0
   16.9274  -10.8132   24.9965 C   0  0  1  0  0  0  0  0  0  0  0  0
   15.9926  -12.0453   24.5458 C   0  0  2  0  0  0  0  0  0  0  0  0
   18.3900   -6.7426   26.3653 C   0  0  1  0  0  0  0  0  0  0  0  0
   17.6538   -5.7698   27.3668 C   0  0  2  0  0  0  0  0  0  0  0  0
   16.6380   -4.8517   26.5257 C   0  0  1  0  0  0  0  0  0  0  0  0
   15.5032   -5.7719   25.8255 C   0  0  1  0  0  0  0  0  0  0  0  0
   14.4663   -4.9644   24.9965 C   0  0  0  0  0  0  0  0  0  0  0  0
   15.5268  -12.8132   25.8783 C   0  0  1  0  0  0  0  0  0  0  0  0
   14.6392  -11.7833   26.7442 C   0  0  0  0  0  0  0  0  0  0  0  0
   15.5038  -10.5216   27.1712 C   0  0  2  0  0  0  0  0  0  0  0  0
   15.9257   -3.9002   27.3851 F   0  0  0  0  0  0  0  0  0  0  0  0
   19.3913   -7.6763   27.0621 N   0  0  0  0  0  0  0  0  0  0  0  0
   13.3856   -5.7350   24.4999 N   0  0  0  0  0  0  0  0  0  0  0  0
   14.6393  -13.9679   25.5311 N   0  0  0  0  0  0  0  0  0  0  0  0
   14.7068   -9.5726   27.9429 N   0  0  0  0  0  0  0  0  0  0  0  0
   16.7332   -8.6893   26.3746 O   0  0  0  0  0  0  0  0  0  0  0  0
   17.3781  -10.0720   23.7784 O   0  0  0  0  0  0  0  0  0  0  0  0
   16.7654  -12.9096   23.7834 O   0  0  0  0  0  0  0  0  0  0  0  0
   18.4718   -5.0858   27.8652 O   0  0  0  0  0  0  0  0  0  0  0  0
   16.2610   -6.8220   24.9303 O   0  0  0  0  0  0  0  0  0  0  0  0
  1  5  1  0  0  0  0
  1 18  1  1  0  0  0
  2 18  1  1  0  0  0
  2  3  1  0  0  0  0
  2 12  1  0  0  0  0
  3 19  1  6  0  0  0
  3  4  1  0  0  0  0
  4 20  1  6  0  0  0
  4 10  1  0  0  0  0
  5  6  1  0  0  0  0
  5 14  1  1  0  0  0
  6 21  1  6  0  0  0
  7 13  1  1  0  0  0
  7  6  1  0  0  0  0
  8  9  1  6  0  0  0
  8  7  1  0  0  0  0
 10 16  1  6  0  0  0
 11 10  1  0  0  0  0
 12 17  1  6  0  0  0
 12 11  1  0  0  0  0
 15  9  1  0  0  0  0
 22  8  1  0  0  0  0
 22  1  1  0  0  0  0
M  END
>  <CHROM.1>
-165.62962641,62.89009142,-173.41276027,16.29628546,-8.47284108,25.96073835
-1.45458064,0.27163837,-2.99440844

>  <Name>
lig.pdb

>  <RI>
0

>  <Rbt.Current_Directory>
/home/itssahil/PROJECTS/Mol_Feturizer/New_Systems/rnas/5bxk

>  <Rbt.Executable>
rbdock ($Id: //depot/dev/client3/rdock/2013.1/src/exe/rbdock.cxx#4 $)

>  <Rbt.Library>
libRbt.so (2013.1, Build901 2013/11/27)

>  <Rbt.Parameter_File>
/export/apps/rDock/src/rDock_2013.1_src/data/scripts/dock_solv.prm

>  <Rbt.Receptor>
prm/pocket_docking_4.prm

>  <SCORE>
-8.25813

>  <SCORE.INTER>
-4.54482

>  <SCORE.INTER.CONST>
1

>  <SCORE.INTER.POLAR>
0

>  <SCORE.INTER.ROT>
3

>  <SCORE.INTER.SOLV>
16.8869

>  <SCORE.INTER.VDW>
-14.2589

>  <SCORE.INTER.norm>
-0.206583

>  <SCORE.INTRA>
-3.71331

>  <SCORE.INTRA.DIHEDRAL>
-5.91151

>  <SCORE.INTRA.DIHEDRAL.0>
7.18044

>  <SCORE.INTRA.POLAR>
0

>  <SCORE.INTRA.POLAR.0>
0

>  <SCORE.INTRA.REPUL>
0

>  <SCORE.INTRA.REPUL.0>
0

>  <SCORE.INTRA.SOLV>
-1.74383

>  <SCORE.INTRA.SOLV.lig_0>
-72.0615

>  <SCORE.INTRA.VDW>
0.114358

>  <SCORE.INTRA.VDW.0>
-1.54792

>  <SCORE.INTRA.norm>
-0.168787

>  <SCORE.RESTR>
0

>  <SCORE.RESTR.CAVITY>
0

>  <SCORE.RESTR.norm>
0

>  <SCORE.SYSTEM>
0

>  <SCORE.SYSTEM.CONST>
0

>  <SCORE.SYSTEM.DIHEDRAL>
0

>  <SCORE.SYSTEM.SOLV>
0

>  <SCORE.SYSTEM.norm>
0

>  <SCORE.heavy>
22

>  <SCORE.norm>
-0.37537

>  <RMSD>
6.729

$$$$
lig.pdb
 OpenBabel11021811523D
libRbt.so/2013.1/901 2013/11/27
 22 23  0  0  0  0  0  0  0  0999 V2000
   16.9790   -7.7391   25.4297 C   0  0  1  0  0  0  0  0  0  0  0  0
   15.8207   -9.9281   25.7688 C   0  0  1  0  0  0  0  0  0  0  0  0
   16.8330  -10.8971   24.9169 C   0  0  1  0  0  0  0  0  0  0  0  0
   16.0106  -12.2225   24.5145 C   0  0  2  0  0  0  0  0  0  0  0  0
   17.7032   -6.5156   26.1527 C   0  0  1  0  0  0  0  0  0  0  0  0
   16.6466   -5.6040   26.8902 C   0  0  2  0  0  0  0  0  0  0  0  0
   15.6380   -5.0076   25.7904 C   0  0  1  0  0  0  0  0  0  0  0  0
   14.8210   -6.2086   25.0728 C   0  0  1  0  0  0  0  0  0  0  0  0
   13.8099   -5.7228   23.9977 C   0  0  0  0  0  0  0  0  0  0  0  0
   15.5992  -12.9700   25.8761 C   0  0  1  0  0  0  0  0  0  0  0  0
   14.6192  -11.9838   26.6917 C   0  0  0  0  0  0  0  0  0  0  0  0
   15.3694  -10.6358   27.0689 C   0  0  2  0  0  0  0  0  0  0  0  0
   14.6322   -4.1277   26.3951 F   0  0  0  0  0  0  0  0  0  0  0  0
   18.7247   -7.1462   27.1111 N   0  0  0  0  0  0  0  0  0  0  0  0
   12.7276   -4.9657   24.5112 N   0  0  0  0  0  0  0  0  0  0  0  0
   14.8164  -14.2099   25.5740 N   0  0  0  0  0  0  0  0  0  0  0  0
   14.4874   -9.7264   27.7943 N   0  0  0  0  0  0  0  0  0  0  0  0
   16.4460   -8.7409   26.2010 O   0  0  0  0  0  0  0  0  0  0  0  0
   17.2304  -10.1725   23.6706 O   0  0  0  0  0  0  0  0  0  0  0  0
   16.8611  -13.0493   23.7945 O   0  0  0  0  0  0  0  0  0  0  0  0
   17.2328   -4.7188   27.3983 O   0  0  0  0  0  0  0  0  0  0  0  0
   15.8947   -7.1793   24.4536 O   0  0  0  0  0  0  0  0  0  0  0  0
  1  5  1  0  0  0  0
  1 18  1  1  0  0  0
  2 18  1  1  0  0  0
  2  3  1  0  0  0  0
  2 12  1  0  0  0  0
  3 19  1  6  0  0  0
  3  4  1  0  0  0  0
  4 20  1  6  0  0  0
  4 10  1  0  0  0  0
  5  6  1  0  0  0  0
  5 14  1  1  0  0  0
  6 21  1  6  0  0  0
  7 13  1  1  0  0  0
  7  6  1  0  0  0  0
  8  9  1  6  0  0  0
  8  7  1  0  0  0  0
 10 16  1  6  0  0  0
 11 10  1  0  0  0  0
 12 17  1  6  0  0  0
 12 11  1  0  0  0  0
 15  9  1  0  0  0  0
 22  8  1  0  0  0  0
 22  1  1  0  0  0  0
M  END
>  <CHROM.1>
-177.05711389,62.54107465,-66.07955396,15.85833406,-8.54095915,25.67596886
-1.61481154,0.36243364,-3.03847202

>  <Name>
lig.pdb

>  <RI>
0

>  <Rbt.Current_Directory>
/home/itssahil/PROJECTS/Mol_Feturizer/New_Systems/rnas/5bxk

>  <Rbt.Executable>
rbdock ($Id: //depot/dev/client3/rdock/2013.1/src/exe/rbdock.cxx#4 $)

>  <Rbt.Library>
libRbt.so (2013.1, Build901 2013/11/27)

>  <Rbt.Parameter_File>
/export/apps/rDock/src/rDock_2013.1_src/data/scripts/dock_solv.prm

>  <Rbt.Receptor>
prm/pocket_docking_5.prm

>  <SCORE>
-10.3794

>  <SCORE.INTER>
-6.59615

>  <SCORE.INTER.CONST>
1

>  <SCORE.INTER.POLAR>
0

>  <SCORE.INTER.ROT>
3

>  <SCORE.INTER.SOLV>
15.3158

>  <SCORE.INTER.VDW>
-15.1027

>  <SCORE.INTER.norm>
-0.299825

>  <SCORE.INTRA>
-3.78323

>  <SCORE.INTRA.DIHEDRAL>
-6.8408

>  <SCORE.INTRA.DIHEDRAL.0>
7.18044

>  <SCORE.INTRA.POLAR>
0

>  <SCORE.INTRA.POLAR.0>
0

>  <SCORE.INTRA.REPUL>
0

>  <SCORE.INTRA.REPUL.0>
0

>  <SCORE.INTRA.SOLV>
-0.906919

>  <SCORE.INTRA.SOLV.lig_0>
-72.0615

>  <SCORE.INTRA.VDW>
0.0906238

>  <SCORE.INTRA.VDW.0>
-1.54792

>  <SCORE.INTRA.norm>
-0.171965

>  <SCORE.RESTR>
0

>  <SCORE.RESTR.CAVITY>
0

>  <SCORE.RESTR.norm>
0

>  <SCORE.SYSTEM>
0

>  <SCORE.SYSTEM.CONST>
0

>  <SCORE.SYSTEM.DIHEDRAL>
0

>  <SCORE.SYSTEM.SOLV>
0

>  <SCORE.SYSTEM.norm>
0

>  <SCORE.heavy>
22

>  <SCORE.norm>
-0.47179

>  <RMSD>
6.732

$$$$
lig.pdb
 OpenBabel11021811523D
libRbt.so/2013.1/901 2013/11/27
 22 23  0  0  0  0  0  0  0  0999 V2000
   17.6273  -12.4363   23.9075 C   0  0  1  0  0  0  0  0  0  0  0  0
   19.6660  -13.8775   24.0309 C   0  0  1  0  0  0  0  0  0  0  0  0
   20.6383  -13.2229   22.8840 C   0  0  1  0  0  0  0  0  0  0  0  0
   21.6725  -14.3657   22.4155 C   0  0  2  0  0  0  0  0  0  0  0  0
   16.7492  -11.3431   24.6676 C   0  0  1  0  0  0  0  0  0  0  0  0
   15.9559  -12.0028   25.8621 C   0  0  2  0  0  0  0  0  0  0  0  0
   14.9605  -13.1102   25.2579 C   0  0  1  0  0  0  0  0  0  0  0  0
   15.8075  -14.2863   24.5338 C   0  0  1  0  0  0  0  0  0  0  0  0
   14.9240  -15.4114   23.9271 C   0  0  0  0  0  0  0  0  0  0  0  0
   22.5668  -14.7623   23.6902 C   0  0  1  0  0  0  0  0  0  0  0  0
   21.5775  -15.3864   24.7994 C   0  0  0  0  0  0  0  0  0  0  0  0
   20.5025  -14.3114   25.2584 C   0  0  2  0  0  0  0  0  0  0  0  0
   14.1670  -13.7589   26.3072 F   0  0  0  0  0  0  0  0  0  0  0  0
   17.7397  -10.2632   25.1286 N   0  0  0  0  0  0  0  0  0  0  0  0
   14.2034  -16.1698   24.8830 N   0  0  0  0  0  0  0  0  0  0  0  0
   23.5457  -15.8352   23.3267 N   0  0  0  0  0  0  0  0  0  0  0  0
   19.5895  -14.8692   26.2516 N   0  0  0  0  0  0  0  0  0  0  0  0
   18.7310  -12.9526   24.5383 O   0  0  0  0  0  0  0  0  0  0  0  0
   19.7850  -12.8306   21.7202 O   0  0  0  0  0  0  0  0  0  0  0  0
   22.5008  -13.8190   21.4457 O   0  0  0  0  0  0  0  0  0  0  0  0
   15.3241  -11.1561   26.3809 O   0  0  0  0  0  0  0  0  0  0  0  0
   16.6918  -13.5937   23.4307 O   0  0  0  0  0  0  0  0  0  0  0  0
  1  5  1  0  0  0  0
  1 18  1  1  0  0  0
  2 18  1  1  0  0  0
  2  3  1  0  0  0  0
  2 12  1  0  0  0  0
  3 19  1  6  0  0  0
  3  4  1  0  0  0  0
  4 20  1  6  0  0  0
  4 10  1  0  0  0  0
  5  6  1  0  0  0  0
  5 14  1  1  0  0  0
  6 21  1  6  0  0  0
  7 13  1  1  0  0  0
  7  6  1  0  0  0  0
  8  9  1  6  0  0  0
  8  7  1  0  0  0  0
 10 16  1  6  0  0  0
 11 10  1  0  0  0  0
 12 17  1  1  0  0  0
 12 11  1  0  0  0  0
 15  9  1  0  0  0  0
 22  8  1  0  0  0  0
 22  1  1  0  0  0  0
M  END
>  <CHROM.1>
-177.15973903,71.56306634,-65.52282514,18.33796267,-13.61198966,24.31030096
-2.97387480,-0.32084573,3.13201556

>  <Name>
lig.pdb

>  <RI>
0

>  <Rbt.Current_Directory>
/home/itssahil/PROJECTS/Mol_Feturizer/New_Systems/rnas/5bxk

>  <Rbt.Executable>
rbdock ($Id: //depot/dev/client3/rdock/2013.1/src/exe/rbdock.cxx#4 $)

>  <Rbt.Library>
libRbt.so (2013.1, Build901 2013/11/27)

>  <Rbt.Parameter_File>
/export/apps/rDock/src/rDock_2013.1_src/data/scripts/dock_solv.prm

>  <Rbt.Receptor>
prm/pocket_docking_6.prm

>  <SCORE>
-10.9294

>  <SCORE.INTER>
-7.48148

>  <SCORE.INTER.CONST>
1

>  <SCORE.INTER.POLAR>
0

>  <SCORE.INTER.ROT>
3

>  <SCORE.INTER.SOLV>
15.3874

>  <SCORE.INTER.VDW>
-15.7168

>  <SCORE.INTER.norm>
-0.340067

>  <SCORE.INTRA>
-3.4479

>  <SCORE.INTRA.DIHEDRAL>
-6.25844

>  <SCORE.INTRA.DIHEDRAL.0>
7.18044

>  <SCORE.INTRA.POLAR>
0

>  <SCORE.INTRA.POLAR.0>
0

>  <SCORE.INTRA.REPUL>
0

>  <SCORE.INTRA.REPUL.0>
0

>  <SCORE.INTRA.SOLV>
-0.703847

>  <SCORE.INTRA.SOLV.lig_0>
-72.0615

>  <SCORE.INTRA.VDW>
0.0332455

>  <SCORE.INTRA.VDW.0>
-1.54792

>  <SCORE.INTRA.norm>
-0.156723

>  <SCORE.RESTR>
0

>  <SCORE.RESTR.CAVITY>
0

>  <SCORE.RESTR.norm>
0

>  <SCORE.SYSTEM>
0

>  <SCORE.SYSTEM.CONST>
0

>  <SCORE.SYSTEM.DIHEDRAL>
0

>  <SCORE.SYSTEM.SOLV>
0

>  <SCORE.SYSTEM.norm>
0

>  <SCORE.heavy>
22

>  <SCORE.norm>
-0.49679

>  <RMSD>
6.732

$$$$
lig.pdb
 OpenBabel11021811523D
libRbt.so/2013.1/901 2013/11/27
 22 23  0  0  0  0  0  0  0  0999 V2000
   17.7347  -12.3959   23.9331 C   0  0  1  0  0  0  0  0  0  0  0  0
   19.7367  -13.8877   24.0555 C   0  0  1  0  0  0  0  0  0  0  0  0
   20.7025  -13.2572   22.8897 C   0  0  1  0  0  0  0  0  0  0  0  0
   21.7150  -14.4184   22.4189 C   0  0  2  0  0  0  0  0  0  0  0  0
   16.8708  -11.2983   24.7033 C   0  0  1  0  0  0  0  0  0  0  0  0
   16.0517  -11.9625   25.8778 C   0  0  2  0  0  0  0  0  0  0  0  0
   15.0406  -13.0387   25.2439 C   0  0  1  0  0  0  0  0  0  0  0  0
   15.8713  -14.2190   24.5080 C   0  0  1  0  0  0  0  0  0  0  0  0
   14.9718  -15.3152   23.8726 C   0  0  0  0  0  0  0  0  0  0  0  0
   22.6207  -14.8149   23.6857 C   0  0  1  0  0  0  0  0  0  0  0  0
   21.6377  -15.4150   24.8136 C   0  0  0  0  0  0  0  0  0  0  0  0
   20.5833  -14.3212   25.2761 C   0  0  2  0  0  0  0  0  0  0  0  0
   14.2230  -13.6892   26.2734 F   0  0  0  0  0  0  0  0  0  0  0  0
   17.8779  -10.2470   25.1933 N   0  0  0  0  0  0  0  0  0  0  0  0
   14.2315  -16.0801   24.8079 N   0  0  0  0  0  0  0  0  0  0  0  0
   23.5801  -15.9044   23.3198 N   0  0  0  0  0  0  0  0  0  0  0  0
   19.6761  -14.8571   26.2865 N   0  0  0  0  0  0  0  0  0  0  0  0
   18.8209  -12.9454   24.5661 O   0  0  0  0  0  0  0  0  0  0  0  0
   19.8393  -12.8645   21.7334 O   0  0  0  0  0  0  0  0  0  0  0  0
   22.5377  -13.8922   21.4332 O   0  0  0  0  0  0  0  0  0  0  0  0
   15.4315  -11.1122   26.4048 O   0  0  0  0  0  0  0  0  0  0  0  0
   16.7812  -13.5255   23.4265 O   0  0  0  0  0  0  0  0  0  0  0  0
  1  5  1  0  0  0  0
  1 18  1  1  0  0  0
  2 18  1  1  0  0  0
  2  3  1  0  0  0  0
  2 12  1  0  0  0  0
  3 19  1  6  0  0  0
  3  4  1  0  0  0  0
  4 20  1  6  0  0  0
  4 10  1  0  0  0  0
  5  6  1  0  0  0  0
  5 14  1  1  0  0  0
  6 21  1  6  0  0  0
  7 13  1  1  0  0  0
  7  6  1  0  0  0  0
  8  9  1  6  0  0  0
  8  7  1  0  0  0  0
 10 16  1  6  0  0  0
 11 10  1  0  0  0  0
 12 17  1  1  0  0  0
 12 11  1  0  0  0  0
 15  9  1  0  0  0  0
 22  8  1  0  0  0  0
 22  1  1  0  0  0  0
M  END
>  <CHROM.1>
-177.67577502,69.82711953,-65.85261758,18.41079550,-13.59758309,24.31318641
-2.94058318,-0.31004716,-3.10238749

>  <Name>
lig.pdb

>  <RI>
0

>  <Rbt.Current_Directory>
/home/itssahil/PROJECTS/Mol_Feturizer/New_Systems/rnas/5bxk

>  <Rbt.Executable>
rbdock ($Id: //depot/dev/client3/rdock/2013.1/src/exe/rbdock.cxx#4 $)

>  <Rbt.Library>
libRbt.so (2013.1, Build901 2013/11/27)

>  <Rbt.Parameter_File>
/export/apps/rDock/src/rDock_2013.1_src/data/scripts/dock_solv.prm

>  <Rbt.Receptor>
prm/pocket_docking_6.prm

>  <SCORE>
-10.9358

>  <SCORE.INTER>
-7.38279

>  <SCORE.INTER.CONST>
1

>  <SCORE.INTER.POLAR>
0

>  <SCORE.INTER.ROT>
3

>  <SCORE.INTER.SOLV>
15.7136

>  <SCORE.INTER.VDW>
-15.7597

>  <SCORE.INTER.norm>
-0.335581

>  <SCORE.INTRA>
-3.55303

>  <SCORE.INTRA.DIHEDRAL>
-6.4315

>  <SCORE.INTRA.DIHEDRAL.0>
7.18044

>  <SCORE.INTRA.POLAR>
0

>  <SCORE.INTRA.POLAR.0>
0

>  <SCORE.INTRA.REPUL>
0

>  <SCORE.INTRA.REPUL.0>
0

>  <SCORE.INTRA.SOLV>
-0.765198

>  <SCORE.INTRA.SOLV.lig_0>
-72.0615

>  <SCORE.INTRA.VDW>
0.0453197

>  <SCORE.INTRA.VDW.0>
-1.54792

>  <SCORE.INTRA.norm>
-0.161501

>  <SCORE.RESTR>
0

>  <SCORE.RESTR.CAVITY>
0

>  <SCORE.RESTR.norm>
0

>  <SCORE.SYSTEM>
0

>  <SCORE.SYSTEM.CONST>
0

>  <SCORE.SYSTEM.DIHEDRAL>
0

>  <SCORE.SYSTEM.SOLV>
0

>  <SCORE.SYSTEM.norm>
0

>  <SCORE.heavy>
22

>  <SCORE.norm>
-0.497083

>  <RMSD>
6.744

$$$$
lig.pdb
 OpenBabel11021811523D
libRbt.so/2013.1/901 2013/11/27
 22 23  0  0  0  0  0  0  0  0999 V2000
   18.1839   -8.5418   26.3293 C   0  0  1  0  0  0  0  0  0  0  0  0
   16.5531  -10.4167   26.0577 C   0  0  1  0  0  0  0  0  0  0  0  0
   17.4619  -11.5528   25.3009 C   0  0  1  0  0  0  0  0  0  0  0  0
   16.4546  -12.5376   24.5195 C   0  0  2  0  0  0  0  0  0  0  0  0
   19.2182   -7.8677   27.3392 C   0  0  1  0  0  0  0  0  0  0  0  0
   18.4639   -6.9307   28.3611 C   0  0  2  0  0  0  0  0  0  0  0  0
   17.7391   -5.7594   27.5334 C   0  0  1  0  0  0  0  0  0  0  0  0
   16.6234   -6.3861   26.5398 C   0  0  1  0  0  0  0  0  0  0  0  0
   15.8609   -5.3213   25.7037 C   0  0  0  0  0  0  0  0  0  0  0  0
   15.5313  -13.2589   25.6192 C   0  0  1  0  0  0  0  0  0  0  0  0
   14.6663  -12.1123   26.3510 C   0  0  0  0  0  0  0  0  0  0  0  0
   15.6186  -11.0827   27.0959 C   0  0  2  0  0  0  0  0  0  0  0  0
   17.0291   -4.8282   28.4167 F   0  0  0  0  0  0  0  0  0  0  0  0
   19.9510   -9.0329   28.0212 N   0  0  0  0  0  0  0  0  0  0  0  0
   16.6939   -4.4902   24.9140 N   0  0  0  0  0  0  0  0  0  0  0  0
   14.5575  -14.1833   24.9569 N   0  0  0  0  0  0  0  0  0  0  0  0
   14.8479  -10.0293   27.7497 N   0  0  0  0  0  0  0  0  0  0  0  0
   17.3334   -9.5090   26.8023 O   0  0  0  0  0  0  0  0  0  0  0  0
   18.3370  -10.8603   24.3054 O   0  0  0  0  0  0  0  0  0  0  0  0
   17.2161  -13.5038   23.8775 O   0  0  0  0  0  0  0  0  0  0  0  0
   19.2720   -6.4579   29.0743 O   0  0  0  0  0  0  0  0  0  0  0  0
   17.3704   -7.4163   25.6129 O   0  0  0  0  0  0  0  0  0  0  0  0
  1  5  1  0  0  0  0
  1 18  1  1  0  0  0
  2 18  1  1  0  0  0
  2  3  1  0  0  0  0
  2 12  1  0  0  0  0
  3 19  1  6  0  0  0
  3  4  1  0  0  0  0
  4 20  1  1  0  0  0
  4 10  1  0  0  0  0
  5  6  1  0  0  0  0
  5 14  1  1  0  0  0
  6 21  1  1  0  0  0
  7 13  1  1  0  0  0
  7  6  1  0  0  0  0
  8  9  1  6  0  0  0
  8  7  1  0  0  0  0
 10 16  1  6  0  0  0
 11 10  1  0  0  0  0
 12 17  1  6  0  0  0
 12 11  1  0  0  0  0
 15  9  1  0  0  0  0
 22  8  1  0  0  0  0
 22  1  1  0  0  0  0
M  END
>  <CHROM.1>
-165.58354588,69.94474331,56.79349063,17.06719991,-9.11969755,26.40083576
-1.32274604,0.41469065,-2.93364409

>  <Name>
lig.pdb

>  <RI>
0

>  <Rbt.Current_Directory>
/home/itssahil/PROJECTS/Mol_Feturizer/New_Systems/rnas/5bxk

>  <Rbt.Executable>
rbdock ($Id: //depot/dev/client3/rdock/2013.1/src/exe/rbdock.cxx#4 $)

>  <Rbt.Library>
libRbt.so (2013.1, Build901 2013/11/27)

>  <Rbt.Parameter_File>
/export/apps/rDock/src/rDock_2013.1_src/data/scripts/dock_solv.prm

>  <Rbt.Receptor>
prm/pocket_docking_3.prm

>  <SCORE>
-5.95588

>  <SCORE.INTER>
-2.90862

>  <SCORE.INTER.CONST>
1

>  <SCORE.INTER.POLAR>
0

>  <SCORE.INTER.ROT>
3

>  <SCORE.INTER.SOLV>
15.6912

>  <SCORE.INTER.VDW>
-12.7695

>  <SCORE.INTER.norm>
-0.13221

>  <SCORE.INTRA>
-3.04727

>  <SCORE.INTRA.DIHEDRAL>
-5.59013

>  <SCORE.INTRA.DIHEDRAL.0>
7.18044

>  <SCORE.INTRA.POLAR>
0

>  <SCORE.INTRA.POLAR.0>
0

>  <SCORE.INTRA.REPUL>
0

>  <SCORE.INTRA.REPUL.0>
0

>  <SCORE.INTRA.SOLV>
-0.407125

>  <SCORE.INTRA.SOLV.lig_0>
-72.0615

>  <SCORE.INTRA.VDW>
-0.0486373

>  <SCORE.INTRA.VDW.0>
-1.54792

>  <SCORE.INTRA.norm>
-0.138512

>  <SCORE.RESTR>
0

>  <SCORE.RESTR.CAVITY>
0

>  <SCORE.RESTR.norm>
0

>  <SCORE.SYSTEM>
0

>  <SCORE.SYSTEM.CONST>
0

>  <SCORE.SYSTEM.DIHEDRAL>
0

>  <SCORE.SYSTEM.SOLV>
0

>  <SCORE.SYSTEM.norm>
0

>  <SCORE.heavy>
22

>  <SCORE.norm>
-0.270722

>  <RMSD>
6.748

$$$$
lig.pdb
 OpenBabel11021811523D
libRbt.so/2013.1/901 2013/11/27
 22 23  0  0  0  0  0  0  0  0999 V2000
   17.0557  -14.5703   23.4933 C   0  0  1  0  0  0  0  0  0  0  0  0
   16.3926  -12.4854   24.7024 C   0  0  1  0  0  0  0  0  0  0  0  0
   16.3223  -10.8891   24.3333 C   0  0  1  0  0  0  0  0  0  0  0  0
   16.1120  -10.0819   25.7115 C   0  0  2  0  0  0  0  0  0  0  0  0
   18.6218  -14.7853   23.7057 C   0  0  1  0  0  0  0  0  0  0  0  0
   19.4301  -14.2263   22.4705 C   0  0  2  0  0  0  0  0  0  0  0  0
   18.9866  -15.0473   21.1623 C   0  0  1  0  0  0  0  0  0  0  0  0
   17.4136  -14.8058   20.8584 C   0  0  1  0  0  0  0  0  0  0  0  0
   16.8970  -15.5555   19.5992 C   0  0  0  0  0  0  0  0  0  0  0  0
   14.6992  -10.5354   26.3283 C   0  0  1  0  0  0  0  0  0  0  0  0
   14.8009  -12.1088   26.6635 C   0  0  0  0  0  0  0  0  0  0  0  0
   15.0603  -12.9471   25.3399 C   0  0  2  0  0  0  0  0  0  0  0  0
   19.7113  -14.6004   19.9679 F   0  0  0  0  0  0  0  0  0  0  0  0
   18.9640  -14.0692   25.0209 N   0  0  0  0  0  0  0  0  0  0  0  0
   17.0202  -16.9657   19.6656 N   0  0  0  0  0  0  0  0  0  0  0  0
   14.4456   -9.8296   27.6241 N   0  0  0  0  0  0  0  0  0  0  0  0
   15.1706  -14.3732   25.6318 N   0  0  0  0  0  0  0  0  0  0  0  0
   16.5484  -13.2973   23.5605 O   0  0  0  0  0  0  0  0  0  0  0  0
   17.6327  -10.4932   23.7314 O   0  0  0  0  0  0  0  0  0  0  0  0
   16.0495   -8.7295   25.4077 O   0  0  0  0  0  0  0  0  0  0  0  0
   20.5731  -14.4158   22.6775 O   0  0  0  0  0  0  0  0  0  0  0  0
   16.6301  -15.2470   22.1506 O   0  0  0  0  0  0  0  0  0  0  0  0
  1  5  1  0  0  0  0
  1 18  1  6  0  0  0
  2 18  1  6  0  0  0
  2  3  1  0  0  0  0
  2 12  1  0  0  0  0
  3 19  1  1  0  0  0
  3  4  1  0  0  0  0
  4 20  1  6  0  0  0
  4 10  1  0  0  0  0
  5  6  1  0  0  0  0
  5 14  1  1  0  0  0
  6 21  1  1  0  0  0
  7 13  1  6  0  0  0
  7  6  1  0  0  0  0
  8  9  1  6  0  0  0
  8  7  1  0  0  0  0
 10 16  1  1  0  0  0
 11 10  1  0  0  0  0
 12 17  1  1  0  0  0
 12 11  1  0  0  0  0
 15  9  1  0  0  0  0
 22  8  1  0  0  0  0
 22  1  1  0  0  0  0
M  END
>  <CHROM.1>
-71.62332448,157.38582728,60.68390287,17.08226945,-13.18800167,23.55952742
1.10666465,-0.47058601,-2.53039799

>  <Name>
lig.pdb

>  <RI>
0

>  <Rbt.Current_Directory>
/home/itssahil/PROJECTS/Mol_Feturizer/New_Systems/rnas/5bxk

>  <Rbt.Executable>
rbdock ($Id: //depot/dev/client3/rdock/2013.1/src/exe/rbdock.cxx#4 $)

>  <Rbt.Library>
libRbt.so (2013.1, Build901 2013/11/27)

>  <Rbt.Parameter_File>
/export/apps/rDock/src/rDock_2013.1_src/data/scripts/dock_solv.prm

>  <Rbt.Receptor>
prm/pocket_docking_8.prm

>  <SCORE>
-9.94354

>  <SCORE.INTER>
-9.27976

>  <SCORE.INTER.CONST>
1

>  <SCORE.INTER.POLAR>
0

>  <SCORE.INTER.ROT>
3

>  <SCORE.INTER.SOLV>
14.1035

>  <SCORE.INTER.VDW>
-16.4877

>  <SCORE.INTER.norm>
-0.421807

>  <SCORE.INTRA>
-0.66378

>  <SCORE.INTRA.DIHEDRAL>
-4.17873

>  <SCORE.INTRA.DIHEDRAL.0>
7.18044

>  <SCORE.INTRA.POLAR>
0

>  <SCORE.INTRA.POLAR.0>
0

>  <SCORE.INTRA.REPUL>
0

>  <SCORE.INTRA.REPUL.0>
0

>  <SCORE.INTRA.SOLV>
2.47568

>  <SCORE.INTRA.SOLV.lig_0>
-72.0615

>  <SCORE.INTRA.VDW>
0.187744

>  <SCORE.INTRA.VDW.0>
-1.54792

>  <SCORE.INTRA.norm>
-0.0301718

>  <SCORE.RESTR>
0

>  <SCORE.RESTR.CAVITY>
0

>  <SCORE.RESTR.norm>
0

>  <SCORE.SYSTEM>
0

>  <SCORE.SYSTEM.CONST>
0

>  <SCORE.SYSTEM.DIHEDRAL>
0

>  <SCORE.SYSTEM.SOLV>
0

>  <SCORE.SYSTEM.norm>
0

>  <SCORE.heavy>
22

>  <SCORE.norm>
-0.451979

>  <RMSD>
6.748

$$$$
lig.pdb
 OpenBabel11021811523D
libRbt.so/2013.1/901 2013/11/27
 22 23  0  0  0  0  0  0  0  0999 V2000
   17.0156   -7.7969   25.4122 C   0  0  1  0  0  0  0  0  0  0  0  0
   15.8132   -9.9568   25.7831 C   0  0  1  0  0  0  0  0  0  0  0  0
   16.8068  -10.9538   24.9417 C   0  0  1  0  0  0  0  0  0  0  0  0
   15.9613  -12.2705   24.5590 C   0  0  2  0  0  0  0  0  0  0  0  0
   17.8010   -6.6002   26.1158 C   0  0  1  0  0  0  0  0  0  0  0  0
   16.7954   -5.6455   26.8700 C   0  0  2  0  0  0  0  0  0  0  0  0
   15.7893   -5.0140   25.7877 C   0  0  1  0  0  0  0  0  0  0  0  0
   14.9123   -6.1847   25.0912 C   0  0  1  0  0  0  0  0  0  0  0  0
   13.8998   -5.6635   24.0340 C   0  0  0  0  0  0  0  0  0  0  0  0
   15.5411  -12.9929   25.9315 C   0  0  1  0  0  0  0  0  0  0  0  0
   14.5799  -11.9796   26.7363 C   0  0  0  0  0  0  0  0  0  0  0  0
   15.3536  -10.6395   27.0936 C   0  0  2  0  0  0  0  0  0  0  0  0
   14.8306   -4.0935   26.4083 F   0  0  0  0  0  0  0  0  0  0  0  0
   18.8159   -7.2669   27.0567 N   0  0  0  0  0  0  0  0  0  0  0  0
   12.8279   -4.9086   24.5719 N   0  0  0  0  0  0  0  0  0  0  0  0
   14.7368  -14.2234   25.6478 N   0  0  0  0  0  0  0  0  0  0  0  0
   14.4889   -9.7060   27.8091 N   0  0  0  0  0  0  0  0  0  0  0  0
   16.4594   -8.7745   26.1979 O   0  0  0  0  0  0  0  0  0  0  0  0
   17.2129  -10.2526   23.6849 O   0  0  0  0  0  0  0  0  0  0  0  0
   16.7959  -13.1209   23.8480 O   0  0  0  0  0  0  0  0  0  0  0  0
   17.4255   -4.7822   27.3628 O   0  0  0  0  0  0  0  0  0  0  0  0
   15.9349   -7.1987   24.4551 O   0  0  0  0  0  0  0  0  0  0  0  0
  1  5  1  0  0  0  0
  1 18  1  1  0  0  0
  2 18  1  1  0  0  0
  2  3  1  0  0  0  0
  2 12  1  0  0  0  0
  3 19  1  6  0  0  0
  3  4  1  0  0  0  0
  4 20  1  6  0  0  0
  4 10  1  0  0  0  0
  5  6  1  0  0  0  0
  5 14  1  1  0  0  0
  6 21  1  6  0  0  0
  7 13  1  1  0  0  0
  7  6  1  0  0  0  0
  8  9  1  6  0  0  0
  8  7  1  0  0  0  0
 10 16  1  6  0  0  0
 11 10  1  0  0  0  0
 12 17  1  6  0  0  0
 12 11  1  0  0  0  0
 15  9  1  0  0  0  0
 22  8  1  0  0  0  0
 22  1  1  0  0  0  0
M  END
>  <CHROM.1>
-175.09128531,62.01592530,-68.51916194,15.90139930,-8.56582649,25.69055366
-1.58808778,0.32358884,-3.05636103

>  <Name>
lig.pdb

>  <RI>
0

>  <Rbt.Current_Directory>
/home/itssahil/PROJECTS/Mol_Feturizer/New_Systems/rnas/5bxk

>  <Rbt.Executable>
rbdock ($Id: //depot/dev/client3/rdock/2013.1/src/exe/rbdock.cxx#4 $)

>  <Rbt.Library>
libRbt.so (2013.1, Build901 2013/11/27)

>  <Rbt.Parameter_File>
/export/apps/rDock/src/rDock_2013.1_src/data/scripts/dock_solv.prm

>  <Rbt.Receptor>
prm/pocket_docking_5.prm

>  <SCORE>
-10.2589

>  <SCORE.INTER>
-6.54388

>  <SCORE.INTER.CONST>
1

>  <SCORE.INTER.POLAR>
0

>  <SCORE.INTER.ROT>
3

>  <SCORE.INTER.SOLV>
15.4951

>  <SCORE.INTER.VDW>
-15.1276

>  <SCORE.INTER.norm>
-0.297449

>  <SCORE.INTRA>
-3.71499

>  <SCORE.INTRA.DIHEDRAL>
-6.65463

>  <SCORE.INTRA.DIHEDRAL.0>
7.18044

>  <SCORE.INTRA.POLAR>
0

>  <SCORE.INTRA.POLAR.0>
0

>  <SCORE.INTRA.REPUL>
0

>  <SCORE.INTRA.REPUL.0>
0

>  <SCORE.INTRA.SOLV>
-0.947289

>  <SCORE.INTRA.SOLV.lig_0>
-72.0615

>  <SCORE.INTRA.VDW>
0.0859739

>  <SCORE.INTRA.VDW.0>
-1.54792

>  <SCORE.INTRA.norm>
-0.168863

>  <SCORE.RESTR>
0

>  <SCORE.RESTR.CAVITY>
0

>  <SCORE.RESTR.norm>
0

>  <SCORE.SYSTEM>
0

>  <SCORE.SYSTEM.CONST>
0

>  <SCORE.SYSTEM.DIHEDRAL>
0

>  <SCORE.SYSTEM.SOLV>
0

>  <SCORE.SYSTEM.norm>
0

>  <SCORE.heavy>
22

>  <SCORE.norm>
-0.466312

>  <RMSD>
6.750

$$$$
lig.pdb
 OpenBabel11021811523D
libRbt.so/2013.1/901 2013/11/27
 22 23  0  0  0  0  0  0  0  0999 V2000
   16.9729  -14.3101   22.9921 C   0  0  1  0  0  0  0  0  0  0  0  0
   16.9691  -13.0126   25.1287 C   0  0  1  0  0  0  0  0  0  0  0  0
   17.8036  -11.7341   24.5303 C   0  0  1  0  0  0  0  0  0  0  0  0
   17.5096  -10.4724   25.4878 C   0  0  2  0  0  0  0  0  0  0  0  0
   16.8522  -15.7757   22.3743 C   0  0  1  0  0  0  0  0  0  0  0  0
   18.2400  -16.5239   22.4487 C   0  0  2  0  0  0  0  0  0  0  0  0
   19.3066  -15.6998   21.5737 C   0  0  1  0  0  0  0  0  0  0  0  0
   19.5214  -14.2221   22.2023 C   0  0  1  0  0  0  0  0  0  0  0  0
   20.5488  -13.3541   21.4242 C   0  0  0  0  0  0  0  0  0  0  0  0
   15.9372  -10.1534   25.4004 C   0  0  1  0  0  0  0  0  0  0  0  0
   15.1510  -11.4351   25.9814 C   0  0  0  0  0  0  0  0  0  0  0  0
   15.4495  -12.7215   25.0995 C   0  0  2  0  0  0  0  0  0  0  0  0
   20.6243  -16.3441   21.5740 F   0  0  0  0  0  0  0  0  0  0  0  0
   15.7486  -16.4761   23.1811 N   0  0  0  0  0  0  0  0  0  0  0  0
   21.8685  -13.8703   21.4214 N   0  0  0  0  0  0  0  0  0  0  0  0
   15.5909   -8.9937   26.2817 N   0  0  0  0  0  0  0  0  0  0  0  0
   14.7558  -13.8938   25.6247 N   0  0  0  0  0  0  0  0  0  0  0  0
   17.1302  -14.1756   24.3484 O   0  0  0  0  0  0  0  0  0  0  0  0
   19.2614  -12.0620   24.5895 O   0  0  0  0  0  0  0  0  0  0  0  0
   18.2111   -9.3850   24.9870 O   0  0  0  0  0  0  0  0  0  0  0  0
   18.0946  -17.5921   21.9763 O   0  0  0  0  0  0  0  0  0  0  0  0
   18.1046  -13.5368   22.2417 O   0  0  0  0  0  0  0  0  0  0  0  0
  1  5  1  0  0  0  0
  1 18  1  1  0  0  0
  2 18  1  6  0  0  0
  2  3  1  0  0  0  0
  2 12  1  0  0  0  0
  3 19  1  1  0  0  0
  3  4  1  0  0  0  0
  4 20  1  6  0  0  0
  4 10  1  0  0  0  0
  5  6  1  0  0  0  0
  5 14  1  1  0  0  0
  6 21  1  6  0  0  0
  7 13  1  1  0  0  0
  7  6  1  0  0  0  0
  8  9  1  6  0  0  0
  8  7  1  0  0  0  0
 10 16  1  1  0  0  0
 11 10  1  0  0  0  0
 12 17  1  1  0  0  0
 12 11  1  0  0  0  0
 15  9  1  0  0  0  0
 22  8  1  0  0  0  0
 22  1  1  0  0  0  0
M  END
>  <CHROM.1>
-165.01435553,-50.68710259,-63.17618618,17.78020267,-13.48544996,23.63937215
1.07748558,-0.46002108,-2.74307957

>  <Name>
lig.pdb

>  <RI>
0

>  <Rbt.Current_Directory>
/home/itssahil/PROJECTS/Mol_Feturizer/New_Systems/rnas/5bxk

>  <Rbt.Executable>
rbdock ($Id: //depot/dev/client3/rdock/2013.1/src/exe/rbdock.cxx#4 $)

>  <Rbt.Library>
libRbt.so (2013.1, Build901 2013/11/27)

>  <Rbt.Parameter_File>
/export/apps/rDock/src/rDock_2013.1_src/data/scripts/dock_solv.prm

>  <Rbt.Receptor>
prm/pocket_docking_6.prm

>  <SCORE>
-8.33274

>  <SCORE.INTER>
-6.12731

>  <SCORE.INTER.CONST>
1

>  <SCORE.INTER.POLAR>
0

>  <SCORE.INTER.ROT>
3

>  <SCORE.INTER.SOLV>
12.0444

>  <SCORE.INTER.VDW>
-13.6997

>  <SCORE.INTER.norm>
-0.278514

>  <SCORE.INTRA>
-2.20543

>  <SCORE.INTRA.DIHEDRAL>
-5.57647

>  <SCORE.INTRA.DIHEDRAL.0>
7.18044

>  <SCORE.INTRA.POLAR>
0

>  <SCORE.INTRA.POLAR.0>
0

>  <SCORE.INTRA.REPUL>
0

>  <SCORE.INTRA.REPUL.0>
0

>  <SCORE.INTRA.SOLV>
1.20163

>  <SCORE.INTRA.SOLV.lig_0>
-72.0615

>  <SCORE.INTRA.VDW>
-0.0180077

>  <SCORE.INTRA.VDW.0>
-1.54792

>  <SCORE.INTRA.norm>
-0.100247

>  <SCORE.RESTR>
0

>  <SCORE.RESTR.CAVITY>
0

>  <SCORE.RESTR.norm>
0

>  <SCORE.SYSTEM>
0

>  <SCORE.SYSTEM.CONST>
0

>  <SCORE.SYSTEM.DIHEDRAL>
0

>  <SCORE.SYSTEM.SOLV>
0

>  <SCORE.SYSTEM.norm>
0

>  <SCORE.heavy>
22

>  <SCORE.norm>
-0.378761

>  <RMSD>
6.755

$$$$
lig.pdb
 OpenBabel11021811523D
libRbt.so/2013.1/901 2013/11/27
 22 23  0  0  0  0  0  0  0  0999 V2000
   16.1361   -9.1354   26.9613 C   0  0  1  0  0  0  0  0  0  0  0  0
   16.2385  -11.3324   25.7734 C   0  0  1  0  0  0  0  0  0  0  0  0
   14.8810  -12.0761   26.3150 C   0  0  1  0  0  0  0  0  0  0  0  0
   15.1013  -13.6638   26.1544 C   0  0  2  0  0  0  0  0  0  0  0  0
   15.8683   -7.5719   26.7942 C   0  0  1  0  0  0  0  0  0  0  0  0
   17.1065   -6.8675   26.1144 C   0  0  2  0  0  0  0  0  0  0  0  0
   18.3837   -7.0556   27.0714 C   0  0  1  0  0  0  0  0  0  0  0  0
   18.7444   -8.6282   27.2182 C   0  0  1  0  0  0  0  0  0  0  0  0
   19.9782   -8.9058   28.1209 C   0  0  0  0  0  0  0  0  0  0  0  0
   15.2732  -13.9734   24.5870 C   0  0  1  0  0  0  0  0  0  0  0  0
   16.6055  -13.2155   24.0880 C   0  0  0  0  0  0  0  0  0  0  0  0
   16.4588  -11.6452   24.2740 C   0  0  2  0  0  0  0  0  0  0  0  0
   19.5779   -6.4079   26.5183 F   0  0  0  0  0  0  0  0  0  0  0  0
   14.5818   -7.4582   25.9625 N   0  0  0  0  0  0  0  0  0  0  0  0
   19.7925   -8.5719   29.4855 N   0  0  0  0  0  0  0  0  0  0  0  0
   15.4962  -15.4372   24.3662 N   0  0  0  0  0  0  0  0  0  0  0  0
   17.6658  -10.9477   23.8406 N   0  0  0  0  0  0  0  0  0  0  0  0
   16.1480   -9.9272   25.8409 O   0  0  0  0  0  0  0  0  0  0  0  0
   14.7200  -11.7504   27.7656 O   0  0  0  0  0  0  0  0  0  0  0  0
   13.9554  -14.3009   26.6089 O   0  0  0  0  0  0  0  0  0  0  0  0
   16.8575   -5.7209   26.0219 O   0  0  0  0  0  0  0  0  0  0  0  0
   17.4545   -9.3382   27.7753 O   0  0  0  0  0  0  0  0  0  0  0  0
  1  5  1  0  0  0  0
  1 18  1  6  0  0  0
  2 18  1  6  0  0  0
  2  3  1  0  0  0  0
  2 12  1  0  0  0  0
  3 19  1  1  0  0  0
  3  4  1  0  0  0  0
  4 20  1  6  0  0  0
  4 10  1  0  0  0  0
  5  6  1  0  0  0  0
  5 14  1  6  0  0  0
  6 21  1  1  0  0  0
  7 13  1  6  0  0  0
  7  6  1  0  0  0  0
  8  9  1  1  0  0  0
  8  7  1  0  0  0  0
 10 16  1  1  0  0  0
 11 10  1  0  0  0  0
 12 17  1  1  0  0  0
 12 11  1  0  0  0  0
 15  9  1  0  0  0  0
 22  8  1  0  0  0  0
 22  1  1  0  0  0  0
M  END
>  <CHROM.1>
-173.51366669,69.86930241,66.13622084,16.71038737,-10.11914785,26.28279274
1.10622771,-0.40961887,0.06738742

>  <Name>
lig.pdb

>  <RI>
0

>  <Rbt.Current_Directory>
/home/itssahil/PROJECTS/Mol_Feturizer/New_Systems/rnas/5bxk

>  <Rbt.Executable>
rbdock ($Id: //depot/dev/client3/rdock/2013.1/src/exe/rbdock.cxx#4 $)

>  <Rbt.Library>
libRbt.so (2013.1, Build901 2013/11/27)

>  <Rbt.Parameter_File>
/export/apps/rDock/src/rDock_2013.1_src/data/scripts/dock_solv.prm

>  <Rbt.Receptor>
prm/pocket_docking_4.prm

>  <SCORE>
-9.5148

>  <SCORE.INTER>
-6.05212

>  <SCORE.INTER.CONST>
1

>  <SCORE.INTER.POLAR>
0

>  <SCORE.INTER.ROT>
3

>  <SCORE.INTER.SOLV>
18.8334

>  <SCORE.INTER.VDW>
-15.9125

>  <SCORE.INTER.norm>
-0.275096

>  <SCORE.INTRA>
-3.46268

>  <SCORE.INTRA.DIHEDRAL>
-6.24072

>  <SCORE.INTRA.DIHEDRAL.0>
7.18044

>  <SCORE.INTRA.POLAR>
0

>  <SCORE.INTRA.POLAR.0>
0

>  <SCORE.INTRA.REPUL>
0

>  <SCORE.INTRA.REPUL.0>
0

>  <SCORE.INTRA.SOLV>
-0.59719

>  <SCORE.INTRA.SOLV.lig_0>
-72.0615

>  <SCORE.INTRA.VDW>
-0.0437274

>  <SCORE.INTRA.VDW.0>
-1.54792

>  <SCORE.INTRA.norm>
-0.157395

>  <SCORE.RESTR>
0

>  <SCORE.RESTR.CAVITY>
0

>  <SCORE.RESTR.norm>
0

>  <SCORE.SYSTEM>
0

>  <SCORE.SYSTEM.CONST>
0

>  <SCORE.SYSTEM.DIHEDRAL>
0

>  <SCORE.SYSTEM.SOLV>
0

>  <SCORE.SYSTEM.norm>
0

>  <SCORE.heavy>
22

>  <SCORE.norm>
-0.432491

>  <RMSD>
6.760

$$$$
lig.pdb
 OpenBabel11021811523D
libRbt.so/2013.1/901 2013/11/27
 22 23  0  0  0  0  0  0  0  0999 V2000
   17.5754  -12.6936   23.9234 C   0  0  1  0  0  0  0  0  0  0  0  0
   19.6771  -14.0372   24.0849 C   0  0  1  0  0  0  0  0  0  0  0  0
   20.6644  -13.2968   23.0050 C   0  0  1  0  0  0  0  0  0  0  0  0
   21.7712  -14.3724   22.5435 C   0  0  2  0  0  0  0  0  0  0  0  0
   16.6384  -11.6371   24.6651 C   0  0  1  0  0  0  0  0  0  0  0  0
   15.8352  -12.3328   25.8322 C   0  0  2  0  0  0  0  0  0  0  0  0
   14.8966  -13.4696   25.1927 C   0  0  1  0  0  0  0  0  0  0  0  0
   15.8043  -14.6102   24.4857 C   0  0  1  0  0  0  0  0  0  0  0  0
   14.9781  -15.7608   23.8469 C   0  0  0  0  0  0  0  0  0  0  0  0
   22.6289  -14.7730   23.8419 C   0  0  1  0  0  0  0  0  0  0  0  0
   21.6248  -15.4824   24.8844 C   0  0  0  0  0  0  0  0  0  0  0  0
   20.4809  -14.4760   25.3324 C   0  0  2  0  0  0  0  0  0  0  0  0
   14.0967  -14.1532   26.2148 F   0  0  0  0  0  0  0  0  0  0  0  0
   17.5771  -10.5269   25.1610 N   0  0  0  0  0  0  0  0  0  0  0  0
   14.1072  -15.3494   22.8075 N   0  0  0  0  0  0  0  0  0  0  0  0
   23.6727  -15.7853   23.4851 N   0  0  0  0  0  0  0  0  0  0  0  0
   19.5547  -15.1114   26.2649 N   0  0  0  0  0  0  0  0  0  0  0  0
   18.6781  -13.1758   24.5822 O   0  0  0  0  0  0  0  0  0  0  0  0
   19.8432  -12.9026   21.8190 O   0  0  0  0  0  0  0  0  0  0  0  0
   22.6125  -13.7529   21.6303 O   0  0  0  0  0  0  0  0  0  0  0  0
   15.1596  -11.5123   26.3381 O   0  0  0  0  0  0  0  0  0  0  0  0
   16.6948  -13.8792   23.4128 O   0  0  0  0  0  0  0  0  0  0  0  0
  1  5  1  0  0  0  0
  1 18  1  1  0  0  0
  2 18  1  1  0  0  0
  2  3  1  0  0  0  0
  2 12  1  0  0  0  0
  3 19  1  6  0  0  0
  3  4  1  0  0  0  0
  4 20  1  6  0  0  0
  4 10  1  0  0  0  0
  5  6  1  0  0  0  0
  5 14  1  1  0  0  0
  6 21  1  6  0  0  0
  7 13  1  1  0  0  0
  7  6  1  0  0  0  0
  8  9  1  6  0  0  0
  8  7  1  0  0  0  0
 10 16  1  6  0  0  0
 11 10  1  0  0  0  0
 12 17  1  1  0  0  0
 12 11  1  0  0  0  0
 15  9  1  0  0  0  0
 22  8  1  0  0  0  0
 22  1  1  0  0  0  0
M  END
>  <CHROM.1>
-175.39648611,71.87575273,61.70001814,18.32129185,-13.76633078,24.25143455
-2.92290387,-0.19541267,-2.83312133

>  <Name>
lig.pdb

>  <RI>
0

>  <Rbt.Current_Directory>
/home/itssahil/PROJECTS/Mol_Feturizer/New_Systems/rnas/5bxk

>  <Rbt.Executable>
rbdock ($Id: //depot/dev/client3/rdock/2013.1/src/exe/rbdock.cxx#4 $)

>  <Rbt.Library>
libRbt.so (2013.1, Build901 2013/11/27)

>  <Rbt.Parameter_File>
/export/apps/rDock/src/rDock_2013.1_src/data/scripts/dock_solv.prm

>  <Rbt.Receptor>
prm/pocket_docking_8.prm

>  <SCORE>
-10.6234

>  <SCORE.INTER>
-7.17447

>  <SCORE.INTER.CONST>
1

>  <SCORE.INTER.POLAR>
0

>  <SCORE.INTER.ROT>
3

>  <SCORE.INTER.SOLV>
15.6942

>  <SCORE.INTER.VDW>
-15.6144

>  <SCORE.INTER.norm>
-0.326112

>  <SCORE.INTRA>
-3.44889

>  <SCORE.INTRA.DIHEDRAL>
-6.26021

>  <SCORE.INTRA.DIHEDRAL.0>
7.18044

>  <SCORE.INTRA.POLAR>
0

>  <SCORE.INTRA.POLAR.0>
0

>  <SCORE.INTRA.REPUL>
0

>  <SCORE.INTRA.REPUL.0>
0

>  <SCORE.INTRA.SOLV>
-0.518786

>  <SCORE.INTRA.SOLV.lig_0>
-72.0615

>  <SCORE.INTRA.VDW>
-0.0593898

>  <SCORE.INTRA.VDW.0>
-1.54792

>  <SCORE.INTRA.norm>
-0.156768

>  <SCORE.RESTR>
0

>  <SCORE.RESTR.CAVITY>
0

>  <SCORE.RESTR.norm>
0

>  <SCORE.SYSTEM>
0

>  <SCORE.SYSTEM.CONST>
0

>  <SCORE.SYSTEM.DIHEDRAL>
0

>  <SCORE.SYSTEM.SOLV>
0

>  <SCORE.SYSTEM.norm>
0

>  <SCORE.heavy>
22

>  <SCORE.norm>
-0.48288

>  <RMSD>
6.760

$$$$
lig.pdb
 OpenBabel11021811523D
libRbt.so/2013.1/901 2013/11/27
 22 23  0  0  0  0  0  0  0  0999 V2000
   17.7691  -12.5167   23.9532 C   0  0  1  0  0  0  0  0  0  0  0  0
   19.7944  -13.9768   24.0748 C   0  0  1  0  0  0  0  0  0  0  0  0
   20.7339  -13.2806   22.9251 C   0  0  1  0  0  0  0  0  0  0  0  0
   21.7988  -14.3856   22.4350 C   0  0  2  0  0  0  0  0  0  0  0  0
   16.8527  -11.4806   24.7474 C   0  0  1  0  0  0  0  0  0  0  0  0
   15.9944  -12.2264   25.8422 C   0  0  2  0  0  0  0  0  0  0  0  0
   15.0316  -13.2777   25.1005 C   0  0  1  0  0  0  0  0  0  0  0  0
   15.9148  -14.3990   24.3340 C   0  0  1  0  0  0  0  0  0  0  0  0
   15.0638  -15.4684   23.5947 C   0  0  0  0  0  0  0  0  0  0  0  0
   22.7181  -14.7661   23.6968 C   0  0  1  0  0  0  0  0  0  0  0  0
   21.7602  -15.4319   24.8093 C   0  0  0  0  0  0  0  0  0  0  0  0
   20.6565  -14.3960   25.2896 C   0  0  2  0  0  0  0  0  0  0  0  0
   14.1810  -14.0012   26.0516 F   0  0  0  0  0  0  0  0  0  0  0  0
   17.8183  -10.4456   25.3440 N   0  0  0  0  0  0  0  0  0  0  0  0
   14.3069  -16.3080   24.4493 N   0  0  0  0  0  0  0  0  0  0  0  0
   23.7265  -15.8039   23.3128 N   0  0  0  0  0  0  0  0  0  0  0  0
   19.7718  -14.9921   26.2862 N   0  0  0  0  0  0  0  0  0  0  0  0
   18.8359  -13.0869   24.6008 O   0  0  0  0  0  0  0  0  0  0  0  0
   19.8569  -12.9042   21.7738 O   0  0  0  0  0  0  0  0  0  0  0  0
   22.5995  -13.8035   21.4627 O   0  0  0  0  0  0  0  0  0  0  0  0
   15.3366  -11.4188   26.3902 O   0  0  0  0  0  0  0  0  0  0  0  0
   16.8590  -13.6281   23.3378 O   0  0  0  0  0  0  0  0  0  0  0  0
  1  5  1  0  0  0  0
  1 18  1  1  0  0  0
  2 18  1  1  0  0  0
  2  3  1  0  0  0  0
  2 12  1  0  0  0  0
  3 19  1  6  0  0  0
  3  4  1  0  0  0  0
  4 20  1  6  0  0  0
  4 10  1  0  0  0  0
  5  6  1  0  0  0  0
  5 14  1  1  0  0  0
  6 21  1  6  0  0  0
  7 13  1  1  0  0  0
  7  6  1  0  0  0  0
  8  9  1  6  0  0  0
  8  7  1  0  0  0  0
 10 16  1  6  0  0  0
 11 10  1  0  0  0  0
 12 17  1  1  0  0  0
 12 11  1  0  0  0  0
 15  9  1  0  0  0  0
 22  8  1  0  0  0  0
 22  1  1  0  0  0  0
M  END
>  <CHROM.1>
-177.27184346,65.90005814,-66.45519083,18.44733243,-13.71573700,24.26950909
-2.94823492,-0.26411193,-2.99141116

>  <Name>
lig.pdb

>  <RI>
0

>  <Rbt.Current_Directory>
/home/itssahil/PROJECTS/Mol_Feturizer/New_Systems/rnas/5bxk

>  <Rbt.Executable>
rbdock ($Id: //depot/dev/client3/rdock/2013.1/src/exe/rbdock.cxx#4 $)

>  <Rbt.Library>
libRbt.so (2013.1, Build901 2013/11/27)

>  <Rbt.Parameter_File>
/export/apps/rDock/src/rDock_2013.1_src/data/scripts/dock_solv.prm

>  <Rbt.Receptor>
prm/pocket_docking_8.prm

>  <SCORE>
-11.0223

>  <SCORE.INTER>
-7.30325

>  <SCORE.INTER.CONST>
1

>  <SCORE.INTER.POLAR>
0

>  <SCORE.INTER.ROT>
3

>  <SCORE.INTER.SOLV>
14.7489

>  <SCORE.INTER.VDW>
-15.3851

>  <SCORE.INTER.norm>
-0.331966

>  <SCORE.INTRA>
-3.71907

>  <SCORE.INTRA.DIHEDRAL>
-6.6913

>  <SCORE.INTRA.DIHEDRAL.0>
7.18044

>  <SCORE.INTRA.POLAR>
0

>  <SCORE.INTRA.POLAR.0>
0

>  <SCORE.INTRA.REPUL>
0

>  <SCORE.INTRA.REPUL.0>
0

>  <SCORE.INTRA.SOLV>
-0.861488

>  <SCORE.INTRA.SOLV.lig_0>
-72.0615

>  <SCORE.INTRA.VDW>
0.0573274

>  <SCORE.INTRA.VDW.0>
-1.54792

>  <SCORE.INTRA.norm>
-0.169049

>  <SCORE.RESTR>
0

>  <SCORE.RESTR.CAVITY>
0

>  <SCORE.RESTR.norm>
0

>  <SCORE.SYSTEM>
0

>  <SCORE.SYSTEM.CONST>
0

>  <SCORE.SYSTEM.DIHEDRAL>
0

>  <SCORE.SYSTEM.SOLV>
0

>  <SCORE.SYSTEM.norm>
0

>  <SCORE.heavy>
22

>  <SCORE.norm>
-0.501015

>  <RMSD>
6.771

$$$$
lig.pdb
 OpenBabel11021811523D
libRbt.so/2013.1/901 2013/11/27
 22 23  0  0  0  0  0  0  0  0999 V2000
   16.9893   -7.6609   25.4728 C   0  0  1  0  0  0  0  0  0  0  0  0
   15.7914   -9.8284   25.8121 C   0  0  1  0  0  0  0  0  0  0  0  0
   16.7618  -10.8236   24.9419 C   0  0  1  0  0  0  0  0  0  0  0  0
   15.8927  -12.1196   24.5416 C   0  0  2  0  0  0  0  0  0  0  0  0
   18.0448   -6.6624   26.1309 C   0  0  1  0  0  0  0  0  0  0  0  0
   17.3329   -5.7083   27.1673 C   0  0  2  0  0  0  0  0  0  0  0  0
   16.2404   -4.8315   26.3799 C   0  0  1  0  0  0  0  0  0  0  0  0
   15.1004   -5.7949   25.7497 C   0  0  1  0  0  0  0  0  0  0  0  0
   13.9913   -5.0294   24.9763 C   0  0  0  0  0  0  0  0  0  0  0  0
   15.4743  -12.8624   25.9036 C   0  0  1  0  0  0  0  0  0  0  0  0
   14.5362  -11.8508   26.7373 C   0  0  0  0  0  0  0  0  0  0  0  0
   15.3335  -10.5299   27.1133 C   0  0  2  0  0  0  0  0  0  0  0  0
   15.5450   -3.8987   27.2732 F   0  0  0  0  0  0  0  0  0  0  0  0
   19.1153   -7.5563   26.7749 N   0  0  0  0  0  0  0  0  0  0  0  0
   12.8872   -5.8297   24.5908 N   0  0  0  0  0  0  0  0  0  0  0  0
   14.6487  -14.0748   25.6036 N   0  0  0  0  0  0  0  0  0  0  0  0
   14.4899   -9.5976   27.8552 N   0  0  0  0  0  0  0  0  0  0  0  0
   16.4594   -8.6645   26.2438 O   0  0  0  0  0  0  0  0  0  0  0  0
   17.1670  -10.1040   23.6952 O   0  0  0  0  0  0  0  0  0  0  0  0
   16.7077  -12.9683   23.8061 O   0  0  0  0  0  0  0  0  0  0  0  0
   18.1535   -4.9932   27.6151 O   0  0  0  0  0  0  0  0  0  0  0  0
   15.8425   -6.8249   24.8187 O   0  0  0  0  0  0  0  0  0  0  0  0
  1  5  1  0  0  0  0
  1 18  1  1  0  0  0
  2 18  1  1  0  0  0
  2  3  1  0  0  0  0
  2 12  1  0  0  0  0
  3 19  1  6  0  0  0
  3  4  1  0  0  0  0
  4 20  1  6  0  0  0
  4 10  1  0  0  0  0
  5  6  1  0  0  0  0
  5 14  1  1  0  0  0
  6 21  1  6  0  0  0
  7 13  1  1  0  0  0
  7  6  1  0  0  0  0
  8  9  1  6  0  0  0
  8  7  1  0  0  0  0
 10 16  1  6  0  0  0
 11 10  1  0  0  0  0
 12 17  1  6  0  0  0
 12 11  1  0  0  0  0
 15  9  1  0  0  0  0
 22  8  1  0  0  0  0
 22  1  1  0  0  0  0
M  END
>  <CHROM.1>
-162.91304155,64.08363960,-171.08067652,16.03332912,-8.48193700,25.87339937
-1.50569354,0.15886709,-2.99586490

>  <Name>
lig.pdb

>  <RI>
0

>  <Rbt.Current_Directory>
/home/itssahil/PROJECTS/Mol_Feturizer/New_Systems/rnas/5bxk

>  <Rbt.Executable>
rbdock ($Id: //depot/dev/client3/rdock/2013.1/src/exe/rbdock.cxx#4 $)

>  <Rbt.Library>
libRbt.so (2013.1, Build901 2013/11/27)

>  <Rbt.Parameter_File>
/export/apps/rDock/src/rDock_2013.1_src/data/scripts/dock_solv.prm

>  <Rbt.Receptor>
prm/pocket_docking_5.prm

>  <SCORE>
-8.40727

>  <SCORE.INTER>
-4.97198

>  <SCORE.INTER.CONST>
1

>  <SCORE.INTER.POLAR>
0

>  <SCORE.INTER.ROT>
3

>  <SCORE.INTER.SOLV>
17.8493

>  <SCORE.INTER.VDW>
-14.8644

>  <SCORE.INTER.norm>
-0.225999

>  <SCORE.INTRA>
-3.43529

>  <SCORE.INTRA.DIHEDRAL>
-5.38175

>  <SCORE.INTRA.DIHEDRAL.0>
7.18044

>  <SCORE.INTRA.POLAR>
0

>  <SCORE.INTRA.POLAR.0>
0

>  <SCORE.INTRA.REPUL>
0

>  <SCORE.INTRA.REPUL.0>
0

>  <SCORE.INTRA.SOLV>
-1.69269

>  <SCORE.INTRA.SOLV.lig_0>
-72.0615

>  <SCORE.INTRA.VDW>
0.101928

>  <SCORE.INTRA.VDW.0>
-1.54792

>  <SCORE.INTRA.norm>
-0.156149

>  <SCORE.RESTR>
0

>  <SCORE.RESTR.CAVITY>
0

>  <SCORE.RESTR.norm>
0

>  <SCORE.SYSTEM>
0

>  <SCORE.SYSTEM.CONST>
0

>  <SCORE.SYSTEM.DIHEDRAL>
0

>  <SCORE.SYSTEM.SOLV>
0

>  <SCORE.SYSTEM.norm>
0

>  <SCORE.heavy>
22

>  <SCORE.norm>
-0.382148

>  <RMSD>
6.786

$$$$
lig.pdb
 OpenBabel11021811523D
libRbt.so/2013.1/901 2013/11/27
 22 23  0  0  0  0  0  0  0  0999 V2000
   15.0385   -8.5732   28.9510 C   0  0  1  0  0  0  0  0  0  0  0  0
   15.7662   -9.9601   27.0028 C   0  0  1  0  0  0  0  0  0  0  0  0
   14.7300  -11.2133   27.2148 C   0  0  1  0  0  0  0  0  0  0  0  0
   15.3407  -12.4842   26.4359 C   0  0  2  0  0  0  0  0  0  0  0  0
   14.6644   -7.1021   29.4410 C   0  0  1  0  0  0  0  0  0  0  0  0
   15.9336   -6.1647   29.3984 C   0  0  2  0  0  0  0  0  0  0  0  0
   17.0363   -6.7603   30.4042 C   0  0  1  0  0  0  0  0  0  0  0  0
   17.5059   -8.2302   29.9106 C   0  0  1  0  0  0  0  0  0  0  0  0
   18.5836   -8.8816   30.8209 C   0  0  0  0  0  0  0  0  0  0  0  0
   15.3959  -12.1144   24.8731 C   0  0  1  0  0  0  0  0  0  0  0  0
   16.4095  -10.8722   24.7060 C   0  0  0  0  0  0  0  0  0  0  0  0
   15.8768   -9.6047   25.5007 C   0  0  2  0  0  0  0  0  0  0  0  0
   18.2454   -5.9306   30.4390 F   0  0  0  0  0  0  0  0  0  0  0  0
   13.5374   -6.6293   28.5104 N   0  0  0  0  0  0  0  0  0  0  0  0
   19.8250   -8.1985   30.8397 N   0  0  0  0  0  0  0  0  0  0  0  0
   15.9692  -13.2530   24.0880 N   0  0  0  0  0  0  0  0  0  0  0  0
   16.7944   -8.4767   25.3708 N   0  0  0  0  0  0  0  0  0  0  0  0
   15.3165   -8.7766   27.6229 O   0  0  0  0  0  0  0  0  0  0  0  0
   14.6667  -11.5216   28.6768 O   0  0  0  0  0  0  0  0  0  0  0  0
   14.4683  -13.5493   26.6088 O   0  0  0  0  0  0  0  0  0  0  0  0
   15.6024   -5.0995   29.7737 O   0  0  0  0  0  0  0  0  0  0  0  0
   16.2078   -9.1176   29.8331 O   0  0  0  0  0  0  0  0  0  0  0  0
  1  5  1  0  0  0  0
  1 18  1  6  0  0  0
  2 18  1  1  0  0  0
  2  3  1  0  0  0  0
  2 12  1  0  0  0  0
  3 19  1  1  0  0  0
  3  4  1  0  0  0  0
  4 20  1  6  0  0  0
  4 10  1  0  0  0  0
  5  6  1  0  0  0  0
  5 14  1  6  0  0  0
  6 21  1  1  0  0  0
  7 13  1  6  0  0  0
  7  6  1  0  0  0  0
  8  9  1  1  0  0  0
  8  7  1  0  0  0  0
 10 16  1  6  0  0  0
 11 10  1  0  0  0  0
 12 17  1  1  0  0  0
 12 11  1  0  0  0  0
 15  9  1  0  0  0  0
 22  8  1  0  0  0  0
 22  1  1  0  0  0  0
M  END
>  <CHROM.1>
174.60096863,58.97925607,-64.86733609,16.06162107,-9.16556067,28.07645120
1.29562605,-0.57563026,0.54547149

>  <Name>
lig.pdb

>  <RI>
0

>  <Rbt.Current_Directory>
/home/itssahil/PROJECTS/Mol_Feturizer/New_Systems/rnas/5bxk

>  <Rbt.Executable>
rbdock ($Id: //depot/dev/client3/rdock/2013.1/src/exe/rbdock.cxx#4 $)

>  <Rbt.Library>
libRbt.so (2013.1, Build901 2013/11/27)

>  <Rbt.Parameter_File>
/export/apps/rDock/src/rDock_2013.1_src/data/scripts/dock_solv.prm

>  <Rbt.Receptor>
prm/pocket_docking_5.prm

>  <SCORE>
-8.26799

>  <SCORE.INTER>
-4.48701

>  <SCORE.INTER.CONST>
1

>  <SCORE.INTER.POLAR>
0

>  <SCORE.INTER.ROT>
3

>  <SCORE.INTER.SOLV>
15.2495

>  <SCORE.INTER.VDW>
-13.6745

>  <SCORE.INTER.norm>
-0.203955

>  <SCORE.INTRA>
-3.78099

>  <SCORE.INTRA.DIHEDRAL>
-6.81808

>  <SCORE.INTRA.DIHEDRAL.0>
7.18044

>  <SCORE.INTRA.POLAR>
0

>  <SCORE.INTRA.POLAR.0>
0

>  <SCORE.INTRA.REPUL>
0

>  <SCORE.INTRA.REPUL.0>
0

>  <SCORE.INTRA.SOLV>
-0.945626

>  <SCORE.INTRA.SOLV.lig_0>
-72.0615

>  <SCORE.INTRA.VDW>
0.100866

>  <SCORE.INTRA.VDW.0>
-1.54792

>  <SCORE.INTRA.norm>
-0.171863

>  <SCORE.RESTR>
0

>  <SCORE.RESTR.CAVITY>
0

>  <SCORE.RESTR.norm>
0

>  <SCORE.SYSTEM>
0

>  <SCORE.SYSTEM.CONST>
0

>  <SCORE.SYSTEM.DIHEDRAL>
0

>  <SCORE.SYSTEM.SOLV>
0

>  <SCORE.SYSTEM.norm>
0

>  <SCORE.heavy>
22

>  <SCORE.norm>
-0.375818

>  <RMSD>
6.787

$$$$
lig.pdb
 OpenBabel11021811523D
libRbt.so/2013.1/901 2013/11/27
 22 23  0  0  0  0  0  0  0  0999 V2000
   17.6611  -14.0095   23.1544 C   0  0  1  0  0  0  0  0  0  0  0  0
   16.3987  -12.7725   24.9221 C   0  0  1  0  0  0  0  0  0  0  0  0
   16.4500  -11.2633   24.2826 C   0  0  1  0  0  0  0  0  0  0  0  0
   16.2148  -10.2188   25.4862 C   0  0  2  0  0  0  0  0  0  0  0  0
   17.6569  -15.2814   22.1919 C   0  0  1  0  0  0  0  0  0  0  0  0
   17.7844  -16.6118   23.0318 C   0  0  2  0  0  0  0  0  0  0  0  0
   19.1873  -16.5832   23.8149 C   0  0  1  0  0  0  0  0  0  0  0  0
   19.2169  -15.3473   24.8621 C   0  0  1  0  0  0  0  0  0  0  0  0
   20.5371  -15.2474   25.6754 C   0  0  0  0  0  0  0  0  0  0  0  0
   14.7440  -10.4830   26.0771 C   0  0  1  0  0  0  0  0  0  0  0  0
   14.7273  -11.9773   26.6814 C   0  0  0  0  0  0  0  0  0  0  0  0
   15.0064  -13.0455   25.5400 C   0  0  2  0  0  0  0  0  0  0  0  0
   19.3932  -17.8005   24.6068 F   0  0  0  0  0  0  0  0  0  0  0  0
   16.3447  -15.1962   21.3979 N   0  0  0  0  0  0  0  0  0  0  0  0
   20.7574  -16.3250   26.5690 N   0  0  0  0  0  0  0  0  0  0  0  0
   14.4638   -9.5502   27.2141 N   0  0  0  0  0  0  0  0  0  0  0  0
   15.0100  -14.4029   26.0773 N   0  0  0  0  0  0  0  0  0  0  0  0
   16.5661  -13.7778   23.9480 O   0  0  0  0  0  0  0  0  0  0  0  0
   17.8142  -11.0477   23.7094 O   0  0  0  0  0  0  0  0  0  0  0  0
   16.2548   -8.9384   24.9529 O   0  0  0  0  0  0  0  0  0  0  0  0
   17.7820  -17.5127   22.2744 O   0  0  0  0  0  0  0  0  0  0  0  0
   18.9581  -14.0390   24.0255 O   0  0  0  0  0  0  0  0  0  0  0  0
  1  5  1  0  0  0  0
  1 18  1  1  0  0  0
  2 18  1  6  0  0  0
  2  3  1  0  0  0  0
  2 12  1  0  0  0  0
  3 19  1  1  0  0  0
  3  4  1  0  0  0  0
  4 20  1  6  0  0  0
  4 10  1  0  0  0  0
  5  6  1  0  0  0  0
  5 14  1  1  0  0  0
  6 21  1  6  0  0  0
  7 13  1  1  0  0  0
  7  6  1  0  0  0  0
  8  9  1  6  0  0  0
  8  7  1  0  0  0  0
 10 16  1  1  0  0  0
 11 10  1  0  0  0  0
 12 17  1  1  0  0  0
 12 11  1  0  0  0  0
 15  9  1  0  0  0  0
 22  8  1  0  0  0  0
 22  1  1  0  0  0  0
M  END
>  <CHROM.1>
175.61059075,63.00728997,-66.21478758,17.27271337,-13.75081891,24.55108959
0.85841055,0.73829378,-2.32262966

>  <Name>
lig.pdb

>  <RI>
0

>  <Rbt.Current_Directory>
/home/itssahil/PROJECTS/Mol_Feturizer/New_Systems/rnas/5bxk

>  <Rbt.Executable>
rbdock ($Id: //depot/dev/client3/rdock/2013.1/src/exe/rbdock.cxx#4 $)

>  <Rbt.Library>
libRbt.so (2013.1, Build901 2013/11/27)

>  <Rbt.Parameter_File>
/export/apps/rDock/src/rDock_2013.1_src/data/scripts/dock_solv.prm

>  <Rbt.Receptor>
prm/pocket_docking_8.prm

>  <SCORE>
-10.6874

>  <SCORE.INTER>
-6.9003

>  <SCORE.INTER.CONST>
1

>  <SCORE.INTER.POLAR>
0

>  <SCORE.INTER.ROT>
3

>  <SCORE.INTER.SOLV>
15.3427

>  <SCORE.INTER.VDW>
-15.3144

>  <SCORE.INTER.norm>
-0.31365

>  <SCORE.INTRA>
-3.78705

>  <SCORE.INTRA.DIHEDRAL>
-6.77213

>  <SCORE.INTRA.DIHEDRAL.0>
7.18044

>  <SCORE.INTRA.POLAR>
0

>  <SCORE.INTRA.POLAR.0>
0

>  <SCORE.INTRA.REPUL>
0

>  <SCORE.INTRA.REPUL.0>
0

>  <SCORE.INTRA.SOLV>
-0.907955

>  <SCORE.INTRA.SOLV.lig_0>
-72.0615

>  <SCORE.INTRA.VDW>
0.05299

>  <SCORE.INTRA.VDW.0>
-1.54792

>  <SCORE.INTRA.norm>
-0.172139

>  <SCORE.RESTR>
0

>  <SCORE.RESTR.CAVITY>
0

>  <SCORE.RESTR.norm>
0

>  <SCORE.SYSTEM>
0

>  <SCORE.SYSTEM.CONST>
0

>  <SCORE.SYSTEM.DIHEDRAL>
0

>  <SCORE.SYSTEM.SOLV>
0

>  <SCORE.SYSTEM.norm>
0

>  <SCORE.heavy>
22

>  <SCORE.norm>
-0.485789

>  <RMSD>
6.787

$$$$
lig.pdb
 OpenBabel11021811523D
libRbt.so/2013.1/901 2013/11/27
 22 23  0  0  0  0  0  0  0  0999 V2000
   14.6300  -11.1813   27.6401 C   0  0  1  0  0  0  0  0  0  0  0  0
   15.9985  -12.0498   25.7371 C   0  0  1  0  0  0  0  0  0  0  0  0
   17.5409  -11.7966   25.2409 C   0  0  1  0  0  0  0  0  0  0  0  0
   17.6541  -12.3230   23.7226 C   0  0  2  0  0  0  0  0  0  0  0  0
   14.1456   -9.7026   27.2899 C   0  0  1  0  0  0  0  0  0  0  0  0
   15.0949   -8.6353   27.9613 C   0  0  2  0  0  0  0  0  0  0  0  0
   15.0174   -8.8212   29.5556 C   0  0  1  0  0  0  0  0  0  0  0  0
   15.5675  -10.2866   29.9740 C   0  0  1  0  0  0  0  0  0  0  0  0
   15.5400  -10.5520   31.5047 C   0  0  0  0  0  0  0  0  0  0  0  0
   17.3650  -13.9036   23.7346 C   0  0  1  0  0  0  0  0  0  0  0  0
   15.8490  -14.1137   24.2407 C   0  0  0  0  0  0  0  0  0  0  0  0
   15.6714  -13.5622   25.7193 C   0  0  2  0  0  0  0  0  0  0  0  0
   15.8599   -7.8478   30.2585 F   0  0  0  0  0  0  0  0  0  0  0  0
   14.1402   -9.6205   25.7559 N   0  0  0  0  0  0  0  0  0  0  0  0
   14.2534  -10.4621   32.0917 N   0  0  0  0  0  0  0  0  0  0  0  0
   17.4413  -14.4579   22.3459 N   0  0  0  0  0  0  0  0  0  0  0  0
   14.2979  -13.7319   26.1842 N   0  0  0  0  0  0  0  0  0  0  0  0
   15.7880  -11.6493   27.0722 O   0  0  0  0  0  0  0  0  0  0  0  0
   17.8017  -10.3244   25.2674 O   0  0  0  0  0  0  0  0  0  0  0  0
   18.9577  -12.1141   23.2955 O   0  0  0  0  0  0  0  0  0  0  0  0
   14.6891   -7.5679   27.6759 O   0  0  0  0  0  0  0  0  0  0  0  0
   14.6932  -11.3379   29.1936 O   0  0  0  0  0  0  0  0  0  0  0  0
  1  5  1  0  0  0  0
  1 18  1  6  0  0  0
  2 18  1  1  0  0  0
  2  3  1  0  0  0  0
  2 12  1  0  0  0  0
  3 19  1  6  0  0  0
  3  4  1  0  0  0  0
  4 20  1  1  0  0  0
  4 10  1  0  0  0  0
  5  6  1  0  0  0  0
  5 14  1  6  0  0  0
  6 21  1  1  0  0  0
  7 13  1  1  0  0  0
  7  6  1  0  0  0  0
  8  9  1  1  0  0  0
  8  7  1  0  0  0  0
 10 16  1  6  0  0  0
 11 10  1  0  0  0  0
 12 17  1  6  0  0  0
 12 11  1  0  0  0  0
 15  9  1  0  0  0  0
 22  8  1  0  0  0  0
 22  1  1  0  0  0  0
M  END
>  <CHROM.1>
-73.57770260,150.00320120,59.32018947,15.83515643,-11.11076060,26.93345523
2.24216158,1.07805555,0.39927323

>  <Name>
lig.pdb

>  <RI>
0

>  <Rbt.Current_Directory>
/home/itssahil/PROJECTS/Mol_Feturizer/New_Systems/rnas/5bxk

>  <Rbt.Executable>
rbdock ($Id: //depot/dev/client3/rdock/2013.1/src/exe/rbdock.cxx#4 $)

>  <Rbt.Library>
libRbt.so (2013.1, Build901 2013/11/27)

>  <Rbt.Parameter_File>
/export/apps/rDock/src/rDock_2013.1_src/data/scripts/dock_solv.prm

>  <Rbt.Receptor>
prm/pocket_docking_8.prm

>  <SCORE>
-6.12707

>  <SCORE.INTER>
-5.93692

>  <SCORE.INTER.CONST>
1

>  <SCORE.INTER.POLAR>
0

>  <SCORE.INTER.ROT>
3

>  <SCORE.INTER.SOLV>
24.4082

>  <SCORE.INTER.VDW>
-17.694

>  <SCORE.INTER.norm>
-0.26986

>  <SCORE.INTRA>
-0.190149

>  <SCORE.INTRA.DIHEDRAL>
-2.60463

>  <SCORE.INTRA.DIHEDRAL.0>
7.18044

>  <SCORE.INTRA.POLAR>
0

>  <SCORE.INTRA.POLAR.0>
0

>  <SCORE.INTRA.REPUL>
0

>  <SCORE.INTRA.REPUL.0>
0

>  <SCORE.INTRA.SOLV>
2.18661

>  <SCORE.INTRA.SOLV.lig_0>
-72.0615

>  <SCORE.INTRA.VDW>
0.0188584

>  <SCORE.INTRA.VDW.0>
-1.54792

>  <SCORE.INTRA.norm>
-0.00864313

>  <SCORE.RESTR>
0

>  <SCORE.RESTR.CAVITY>
0

>  <SCORE.RESTR.norm>
0

>  <SCORE.SYSTEM>
0

>  <SCORE.SYSTEM.CONST>
0

>  <SCORE.SYSTEM.DIHEDRAL>
0

>  <SCORE.SYSTEM.SOLV>
0

>  <SCORE.SYSTEM.norm>
0

>  <SCORE.heavy>
22

>  <SCORE.norm>
-0.278503

>  <RMSD>
6.809

$$$$
lig.pdb
 OpenBabel11021811523D
libRbt.so/2013.1/901 2013/11/27
 22 23  0  0  0  0  0  0  0  0999 V2000
   16.4103   -7.2545   25.3579 C   0  0  1  0  0  0  0  0  0  0  0  0
   15.4887   -9.5444   25.7522 C   0  0  1  0  0  0  0  0  0  0  0  0
   16.6471  -10.4454   25.0204 C   0  0  1  0  0  0  0  0  0  0  0  0
   15.9898  -11.8673   24.6446 C   0  0  2  0  0  0  0  0  0  0  0  0
   17.0386   -5.9624   26.0505 C   0  0  1  0  0  0  0  0  0  0  0  0
   15.9165   -5.1217   26.7753 C   0  0  2  0  0  0  0  0  0  0  0  0
   14.8586   -4.6307   25.6698 C   0  0  1  0  0  0  0  0  0  0  0  0
   14.1361   -5.9078   24.9827 C   0  0  1  0  0  0  0  0  0  0  0  0
   13.0846   -5.5267   23.9041 C   0  0  0  0  0  0  0  0  0  0  0  0
   15.5654  -12.5837   26.0189 C   0  0  1  0  0  0  0  0  0  0  0  0
   14.4397  -11.6640   26.7156 C   0  0  0  0  0  0  0  0  0  0  0  0
   15.0247  -10.2285   27.0605 C   0  0  2  0  0  0  0  0  0  0  0  0
   13.7890   -3.8205   26.2623 F   0  0  0  0  0  0  0  0  0  0  0  0
   18.1114   -6.4894   27.0153 N   0  0  0  0  0  0  0  0  0  0  0  0
   11.9972   -4.7598   24.3914 N   0  0  0  0  0  0  0  0  0  0  0  0
   14.9322  -13.9115   25.7407 N   0  0  0  0  0  0  0  0  0  0  0  0
   14.0100   -9.3796   27.6777 N   0  0  0  0  0  0  0  0  0  0  0  0
   15.9621   -8.2786   26.1534 O   0  0  0  0  0  0  0  0  0  0  0  0
   17.0523   -9.7475   23.7614 O   0  0  0  0  0  0  0  0  0  0  0  0
   16.9648  -12.6371   24.0262 O   0  0  0  0  0  0  0  0  0  0  0  0
   16.4330   -4.1822   27.2610 O   0  0  0  0  0  0  0  0  0  0  0  0
   15.2805   -6.8034   24.3772 O   0  0  0  0  0  0  0  0  0  0  0  0
  1  5  1  0  0  0  0
  1 18  1  1  0  0  0
  2 18  1  1  0  0  0
  2  3  1  0  0  0  0
  2 12  1  0  0  0  0
  3 19  1  6  0  0  0
  3  4  1  0  0  0  0
  4 20  1  1  0  0  0
  4 10  1  0  0  0  0
  5  6  1  0  0  0  0
  5 14  1  1  0  0  0
  6 21  1  6  0  0  0
  7 13  1  1  0  0  0
  7  6  1  0  0  0  0
  8  9  1  6  0  0  0
  8  7  1  0  0  0  0
 10 16  1  6  0  0  0
 11 10  1  0  0  0  0
 12 17  1  6  0  0  0
 12 11  1  0  0  0  0
 15  9  1  0  0  0  0
 22  8  1  0  0  0  0
 22  1  1  0  0  0  0
M  END
>  <CHROM.1>
-173.83592101,64.38016969,-61.57304421,15.40914894,-8.14502998,25.65435382
-1.72135348,0.27163215,-3.04857316

>  <Name>
lig.pdb

>  <RI>
0

>  <Rbt.Current_Directory>
/home/itssahil/PROJECTS/Mol_Feturizer/New_Systems/rnas/5bxk

>  <Rbt.Executable>
rbdock ($Id: //depot/dev/client3/rdock/2013.1/src/exe/rbdock.cxx#4 $)

>  <Rbt.Library>
libRbt.so (2013.1, Build901 2013/11/27)

>  <Rbt.Parameter_File>
/export/apps/rDock/src/rDock_2013.1_src/data/scripts/dock_solv.prm

>  <Rbt.Receptor>
prm/pocket_docking_7.prm

>  <SCORE>
-10.5052

>  <SCORE.INTER>
-6.82936

>  <SCORE.INTER.CONST>
1

>  <SCORE.INTER.POLAR>
0

>  <SCORE.INTER.ROT>
3

>  <SCORE.INTER.SOLV>
15.9952

>  <SCORE.INTER.VDW>
-15.4847

>  <SCORE.INTER.norm>
-0.310425

>  <SCORE.INTRA>
-3.67586

>  <SCORE.INTRA.DIHEDRAL>
-6.76319

>  <SCORE.INTRA.DIHEDRAL.0>
7.18044

>  <SCORE.INTRA.POLAR>
0

>  <SCORE.INTRA.POLAR.0>
0

>  <SCORE.INTRA.REPUL>
0

>  <SCORE.INTRA.REPUL.0>
0

>  <SCORE.INTRA.SOLV>
-0.812853

>  <SCORE.INTRA.SOLV.lig_0>
-72.0615

>  <SCORE.INTRA.VDW>
0.112168

>  <SCORE.INTRA.VDW.0>
-1.54792

>  <SCORE.INTRA.norm>
-0.167084

>  <SCORE.RESTR>
0

>  <SCORE.RESTR.CAVITY>
0

>  <SCORE.RESTR.norm>
0

>  <SCORE.SYSTEM>
0

>  <SCORE.SYSTEM.CONST>
0

>  <SCORE.SYSTEM.DIHEDRAL>
0

>  <SCORE.SYSTEM.SOLV>
0

>  <SCORE.SYSTEM.norm>
0

>  <SCORE.heavy>
22

>  <SCORE.norm>
-0.47751

>  <RMSD>
6.817

$$$$
lig.pdb
 OpenBabel11021811523D
libRbt.so/2013.1/901 2013/11/27
 22 23  0  0  0  0  0  0  0  0999 V2000
   16.4269   -7.2728   25.2850 C   0  0  1  0  0  0  0  0  0  0  0  0
   15.5074   -9.5533   25.7348 C   0  0  1  0  0  0  0  0  0  0  0  0
   16.6584  -10.4839   25.0287 C   0  0  1  0  0  0  0  0  0  0  0  0
   15.9875  -11.9079   24.6865 C   0  0  2  0  0  0  0  0  0  0  0  0
   17.1011   -5.9852   25.9420 C   0  0  1  0  0  0  0  0  0  0  0  0
   16.0205   -5.1205   26.7008 C   0  0  2  0  0  0  0  0  0  0  0  0
   14.9296   -4.6218   25.6314 C   0  0  1  0  0  0  0  0  0  0  0  0
   14.1617   -5.8927   24.9834 C   0  0  1  0  0  0  0  0  0  0  0  0
   13.0764   -5.5038   23.9416 C   0  0  0  0  0  0  0  0  0  0  0  0
   15.5524  -12.5856   26.0770 C   0  0  1  0  0  0  0  0  0  0  0  0
   14.4344  -11.6376   26.7476 C   0  0  0  0  0  0  0  0  0  0  0  0
   15.0332  -10.2000   27.0584 C   0  0  2  0  0  0  0  0  0  0  0  0
   13.8960   -3.7896   26.2564 F   0  0  0  0  0  0  0  0  0  0  0  0
   18.2010   -6.5214   26.8706 N   0  0  0  0  0  0  0  0  0  0  0  0
   12.0222   -4.7124   24.4617 N   0  0  0  0  0  0  0  0  0  0  0  0
   14.9063  -13.9134   25.8299 N   0  0  0  0  0  0  0  0  0  0  0  0
   14.0257   -9.3258   27.6516 N   0  0  0  0  0  0  0  0  0  0  0  0
   15.9928   -8.2829   26.1059 O   0  0  0  0  0  0  0  0  0  0  0  0
   17.0738   -9.8216   23.7540 O   0  0  0  0  0  0  0  0  0  0  0  0
   16.9561  -12.7027   24.0900 O   0  0  0  0  0  0  0  0  0  0  0  0
   16.5697   -4.1855   27.1584 O   0  0  0  0  0  0  0  0  0  0  0  0
   15.2681   -6.8118   24.3434 O   0  0  0  0  0  0  0  0  0  0  0  0
  1  5  1  0  0  0  0
  1 18  1  1  0  0  0
  2 18  1  1  0  0  0
  2  3  1  0  0  0  0
  2 12  1  0  0  0  0
  3 19  1  6  0  0  0
  3  4  1  0  0  0  0
  4 20  1  1  0  0  0
  4 10  1  0  0  0  0
  5  6  1  0  0  0  0
  5 14  1  1  0  0  0
  6 21  1  6  0  0  0
  7 13  1  1  0  0  0
  7  6  1  0  0  0  0
  8  9  1  6  0  0  0
  8  7  1  0  0  0  0
 10 16  1  6  0  0  0
 11 10  1  0  0  0  0
 12 17  1  6  0  0  0
 12 11  1  0  0  0  0
 15  9  1  0  0  0  0
 22  8  1  0  0  0  0
 22  1  1  0  0  0  0
M  END
>  <CHROM.1>
-172.57127916,65.90001317,-61.41466183,15.44086180,-8.14910004,25.64158646
-1.71020827,0.19815183,-3.07221859

>  <Name>
lig.pdb

>  <RI>
0

>  <Rbt.Current_Directory>
/home/itssahil/PROJECTS/Mol_Feturizer/New_Systems/rnas/5bxk

>  <Rbt.Executable>
rbdock ($Id: //depot/dev/client3/rdock/2013.1/src/exe/rbdock.cxx#4 $)

>  <Rbt.Library>
libRbt.so (2013.1, Build901 2013/11/27)

>  <Rbt.Parameter_File>
/export/apps/rDock/src/rDock_2013.1_src/data/scripts/dock_solv.prm

>  <Rbt.Receptor>
prm/pocket_docking_7.prm

>  <SCORE>
-10.4983

>  <SCORE.INTER>
-6.91976

>  <SCORE.INTER.CONST>
1

>  <SCORE.INTER.POLAR>
0

>  <SCORE.INTER.ROT>
3

>  <SCORE.INTER.SOLV>
16.1983

>  <SCORE.INTER.VDW>
-15.6126

>  <SCORE.INTER.norm>
-0.314535

>  <SCORE.INTRA>
-3.5785

>  <SCORE.INTRA.DIHEDRAL>
-6.60878

>  <SCORE.INTRA.DIHEDRAL.0>
7.18044

>  <SCORE.INTRA.POLAR>
0

>  <SCORE.INTRA.POLAR.0>
0

>  <SCORE.INTRA.REPUL>
0

>  <SCORE.INTRA.REPUL.0>
0

>  <SCORE.INTRA.SOLV>
-0.786011

>  <SCORE.INTRA.SOLV.lig_0>
-72.0615

>  <SCORE.INTRA.VDW>
0.118894

>  <SCORE.INTRA.VDW.0>
-1.54792

>  <SCORE.INTRA.norm>
-0.162659

>  <SCORE.RESTR>
0

>  <SCORE.RESTR.CAVITY>
0

>  <SCORE.RESTR.norm>
0

>  <SCORE.SYSTEM>
0

>  <SCORE.SYSTEM.CONST>
0

>  <SCORE.SYSTEM.DIHEDRAL>
0

>  <SCORE.SYSTEM.SOLV>
0

>  <SCORE.SYSTEM.norm>
0

>  <SCORE.heavy>
22

>  <SCORE.norm>
-0.477194

>  <RMSD>
6.827

$$$$
lig.pdb
 OpenBabel11021811523D
libRbt.so/2013.1/901 2013/11/27
 22 23  0  0  0  0  0  0  0  0999 V2000
   16.3771   -7.2834   25.2572 C   0  0  1  0  0  0  0  0  0  0  0  0
   15.5098   -9.5816   25.7205 C   0  0  1  0  0  0  0  0  0  0  0  0
   16.6668  -10.5046   25.0143 C   0  0  1  0  0  0  0  0  0  0  0  0
   16.0078  -11.9361   24.6803 C   0  0  2  0  0  0  0  0  0  0  0  0
   17.0569   -5.9919   25.9006 C   0  0  1  0  0  0  0  0  0  0  0  0
   15.9920   -5.1472   26.7031 C   0  0  2  0  0  0  0  0  0  0  0  0
   14.8585   -4.6551   25.6758 C   0  0  1  0  0  0  0  0  0  0  0  0
   14.0852   -5.9312   25.0446 C   0  0  1  0  0  0  0  0  0  0  0  0
   12.9596   -5.5490   24.0440 C   0  0  0  0  0  0  0  0  0  0  0  0
   15.5835  -12.6119   26.0751 C   0  0  1  0  0  0  0  0  0  0  0  0
   14.4592  -11.6712   26.7456 C   0  0  0  0  0  0  0  0  0  0  0  0
   15.0460  -10.2269   27.0483 C   0  0  2  0  0  0  0  0  0  0  0  0
   13.8364   -3.8413   26.3425 F   0  0  0  0  0  0  0  0  0  0  0  0
   18.1951   -6.5204   26.7865 N   0  0  0  0  0  0  0  0  0  0  0  0
   11.8994   -4.8003   24.6130 N   0  0  0  0  0  0  0  0  0  0  0  0
   14.9487  -13.9465   25.8359 N   0  0  0  0  0  0  0  0  0  0  0  0
   14.0326   -9.3595   27.6413 N   0  0  0  0  0  0  0  0  0  0  0  0
   15.9848   -8.3052   26.0845 O   0  0  0  0  0  0  0  0  0  0  0  0
   17.0718   -9.8439   23.7354 O   0  0  0  0  0  0  0  0  0  0  0  0
   16.9815  -12.7245   24.0839 O   0  0  0  0  0  0  0  0  0  0  0  0
   16.5445   -4.2084   27.1488 O   0  0  0  0  0  0  0  0  0  0  0  0
   15.1807   -6.8308   24.3596 O   0  0  0  0  0  0  0  0  0  0  0  0
  1  5  1  0  0  0  0
  1 18  1  1  0  0  0
  2 18  1  1  0  0  0
  2  3  1  0  0  0  0
  2 12  1  0  0  0  0
  3 19  1  6  0  0  0
  3  4  1  0  0  0  0
  4 20  1  1  0  0  0
  4 10  1  0  0  0  0
  5  6  1  0  0  0  0
  5 14  1  1  0  0  0
  6 21  1  6  0  0  0
  7 13  1  1  0  0  0
  7  6  1  0  0  0  0
  8  9  1  6  0  0  0
  8  7  1  0  0  0  0
 10 16  1  6  0  0  0
 11 10  1  0  0  0  0
 12 17  1  6  0  0  0
 12 11  1  0  0  0  0
 15  9  1  0  0  0  0
 22  8  1  0  0  0  0
 22  1  1  0  0  0  0
M  END
>  <CHROM.1>
-172.22148307,67.58504094,-62.72121501,15.41650084,-8.17839642,25.65175758
-1.72266346,0.13865560,-3.07016215

>  <Name>
lig.pdb

>  <RI>
0

>  <Rbt.Current_Directory>
/home/itssahil/PROJECTS/Mol_Feturizer/New_Systems/rnas/5bxk

>  <Rbt.Executable>
rbdock ($Id: //depot/dev/client3/rdock/2013.1/src/exe/rbdock.cxx#4 $)

>  <Rbt.Library>
libRbt.so (2013.1, Build901 2013/11/27)

>  <Rbt.Parameter_File>
/export/apps/rDock/src/rDock_2013.1_src/data/scripts/dock_solv.prm

>  <Rbt.Receptor>
prm/pocket_docking_6.prm

>  <SCORE>
-10.447

>  <SCORE.INTER>
-6.92991

>  <SCORE.INTER.CONST>
1

>  <SCORE.INTER.POLAR>
0

>  <SCORE.INTER.ROT>
3

>  <SCORE.INTER.SOLV>
16.27

>  <SCORE.INTER.VDW>
-15.6433

>  <SCORE.INTER.norm>
-0.314996

>  <SCORE.INTRA>
-3.51706

>  <SCORE.INTRA.DIHEDRAL>
-6.45516

>  <SCORE.INTRA.DIHEDRAL.0>
7.18044

>  <SCORE.INTRA.POLAR>
0

>  <SCORE.INTRA.POLAR.0>
0

>  <SCORE.INTRA.REPUL>
0

>  <SCORE.INTRA.REPUL.0>
0

>  <SCORE.INTRA.SOLV>
-0.763787

>  <SCORE.INTRA.SOLV.lig_0>
-72.0615

>  <SCORE.INTRA.VDW>
0.0924115

>  <SCORE.INTRA.VDW.0>
-1.54792

>  <SCORE.INTRA.norm>
-0.159866

>  <SCORE.RESTR>
0

>  <SCORE.RESTR.CAVITY>
0

>  <SCORE.RESTR.norm>
0

>  <SCORE.SYSTEM>
0

>  <SCORE.SYSTEM.CONST>
0

>  <SCORE.SYSTEM.DIHEDRAL>
0

>  <SCORE.SYSTEM.SOLV>
0

>  <SCORE.SYSTEM.norm>
0

>  <SCORE.heavy>
22

>  <SCORE.norm>
-0.474862

>  <RMSD>
6.829

$$$$
lig.pdb
 OpenBabel11021811523D
libRbt.so/2013.1/901 2013/11/27
 22 23  0  0  0  0  0  0  0  0999 V2000
   16.1814   -7.1783   25.3193 C   0  0  1  0  0  0  0  0  0  0  0  0
   15.4673   -9.5380   25.7319 C   0  0  1  0  0  0  0  0  0  0  0  0
   16.6245  -10.4320   24.9897 C   0  0  1  0  0  0  0  0  0  0  0  0
   15.9763  -11.8626   24.6314 C   0  0  2  0  0  0  0  0  0  0  0  0
   17.0221   -5.9612   25.9160 C   0  0  1  0  0  0  0  0  0  0  0  0
   16.1742   -5.1773   26.9921 C   0  0  2  0  0  0  0  0  0  0  0  0
   14.8707   -4.5765   26.2693 C   0  0  1  0  0  0  0  0  0  0  0  0
   13.9416   -5.7780   25.7054 C   0  0  1  0  0  0  0  0  0  0  0  0
   12.6476   -5.2892   24.9974 C   0  0  0  0  0  0  0  0  0  0  0  0
   15.5777  -12.5747   26.0156 C   0  0  1  0  0  0  0  0  0  0  0  0
   14.4525  -11.6619   26.7222 C   0  0  0  0  0  0  0  0  0  0  0  0
   15.0280  -10.2186   27.0504 C   0  0  2  0  0  0  0  0  0  0  0  0
   14.0357   -3.8116   27.2016 F   0  0  0  0  0  0  0  0  0  0  0  0
   18.2999   -6.5853   26.4969 N   0  0  0  0  0  0  0  0  0  0  0  0
   11.7138   -6.3156   24.7099 N   0  0  0  0  0  0  0  0  0  0  0  0
   14.9539  -13.9103   25.7540 N   0  0  0  0  0  0  0  0  0  0  0  0
   14.0134   -9.3760   27.6764 N   0  0  0  0  0  0  0  0  0  0  0  0
   15.9336   -8.2652   26.1191 O   0  0  0  0  0  0  0  0  0  0  0  0
   17.0056   -9.7378   23.7211 O   0  0  0  0  0  0  0  0  0  0  0  0
   16.9502  -12.6265   24.0043 O   0  0  0  0  0  0  0  0  0  0  0  0
   16.8379   -4.2915   27.3922 O   0  0  0  0  0  0  0  0  0  0  0  0
   14.8417   -6.6277   24.7327 O   0  0  0  0  0  0  0  0  0  0  0  0
  1  5  1  0  0  0  0
  1 18  1  1  0  0  0
  2 18  1  1  0  0  0
  2  3  1  0  0  0  0
  2 12  1  0  0  0  0
  3 19  1  6  0  0  0
  3  4  1  0  0  0  0
  4 20  1  1  0  0  0
  4 10  1  0  0  0  0
  5  6  1  0  0  0  0
  5 14  1  1  0  0  0
  6 21  1  6  0  0  0
  7 13  1  1  0  0  0
  7  6  1  0  0  0  0
  8  9  1  6  0  0  0
  8  7  1  0  0  0  0
 10 16  1  6  0  0  0
 11 10  1  0  0  0  0
 12 17  1  6  0  0  0
 12 11  1  0  0  0  0
 15  9  1  0  0  0  0
 22  8  1  0  0  0  0
 22  1  1  0  0  0  0
M  END
>  <CHROM.1>
-165.75412166,74.47972796,-169.37906683,15.38686898,-8.19192543,25.82563613
-1.69492161,0.00162955,-3.00440340

>  <Name>
lig.pdb

>  <RI>
0

>  <Rbt.Current_Directory>
/home/itssahil/PROJECTS/Mol_Feturizer/New_Systems/rnas/5bxk

>  <Rbt.Executable>
rbdock ($Id: //depot/dev/client3/rdock/2013.1/src/exe/rbdock.cxx#4 $)

>  <Rbt.Library>
libRbt.so (2013.1, Build901 2013/11/27)

>  <Rbt.Parameter_File>
/export/apps/rDock/src/rDock_2013.1_src/data/scripts/dock_solv.prm

>  <Rbt.Receptor>
prm/pocket_docking_8.prm

>  <SCORE>
-8.36933

>  <SCORE.INTER>
-5.28246

>  <SCORE.INTER.CONST>
1

>  <SCORE.INTER.POLAR>
0

>  <SCORE.INTER.ROT>
3

>  <SCORE.INTER.SOLV>
19.2445

>  <SCORE.INTER.VDW>
-15.5365

>  <SCORE.INTER.norm>
-0.240112

>  <SCORE.INTRA>
-3.08687

>  <SCORE.INTRA.DIHEDRAL>
-4.73903

>  <SCORE.INTRA.DIHEDRAL.0>
7.18044

>  <SCORE.INTRA.POLAR>
0

>  <SCORE.INTRA.POLAR.0>
0

>  <SCORE.INTRA.REPUL>
0

>  <SCORE.INTRA.REPUL.0>
0

>  <SCORE.INTRA.SOLV>
-1.43357

>  <SCORE.INTRA.SOLV.lig_0>
-72.0615

>  <SCORE.INTRA.VDW>
-0.000571396

>  <SCORE.INTRA.VDW.0>
-1.54792

>  <SCORE.INTRA.norm>
-0.140312

>  <SCORE.RESTR>
0

>  <SCORE.RESTR.CAVITY>
0

>  <SCORE.RESTR.norm>
0

>  <SCORE.SYSTEM>
0

>  <SCORE.SYSTEM.CONST>
0

>  <SCORE.SYSTEM.DIHEDRAL>
0

>  <SCORE.SYSTEM.SOLV>
0

>  <SCORE.SYSTEM.norm>
0

>  <SCORE.heavy>
22

>  <SCORE.norm>
-0.380424

>  <RMSD>
6.830

$$$$
lig.pdb
 OpenBabel11021811523D
libRbt.so/2013.1/901 2013/11/27
 22 23  0  0  0  0  0  0  0  0999 V2000
   13.8192   -8.7748   26.5216 C   0  0  1  0  0  0  0  0  0  0  0  0
   15.8221  -10.2696   26.4756 C   0  0  1  0  0  0  0  0  0  0  0  0
   14.9959  -11.4853   25.7485 C   0  0  1  0  0  0  0  0  0  0  0  0
   16.0786  -12.4933   25.1106 C   0  0  2  0  0  0  0  0  0  0  0  0
   13.8408   -7.2723   25.9867 C   0  0  1  0  0  0  0  0  0  0  0  0
   13.9461   -6.2572   27.1909 C   0  0  2  0  0  0  0  0  0  0  0  0
   12.6471   -6.4376   28.1196 C   0  0  1  0  0  0  0  0  0  0  0  0
   12.6139   -7.9302   28.7488 C   0  0  1  0  0  0  0  0  0  0  0  0
   11.3930   -8.1927   29.6735 C   0  0  0  0  0  0  0  0  0  0  0  0
   16.8980  -11.6805   23.9925 C   0  0  1  0  0  0  0  0  0  0  0  0
   17.6829  -10.4876   24.7404 C   0  0  0  0  0  0  0  0  0  0  0  0
   16.6581   -9.4909   25.4319 C   0  0  2  0  0  0  0  0  0  0  0  0
   12.6580   -5.5105   29.2562 F   0  0  0  0  0  0  0  0  0  0  0  0
   15.0373   -7.1911   25.0268 N   0  0  0  0  0  0  0  0  0  0  0  0
   11.4013   -7.4490   30.8797 N   0  0  0  0  0  0  0  0  0  0  0  0
   17.9357  -12.5588   23.3654 N   0  0  0  0  0  0  0  0  0  0  0  0
   17.3571   -8.4140   26.1269 N   0  0  0  0  0  0  0  0  0  0  0  0
   14.9693   -9.3049   27.0495 O   0  0  0  0  0  0  0  0  0  0  0  0
   14.2150  -12.2093   26.7984 O   0  0  0  0  0  0  0  0  0  0  0  0
   15.3873  -13.5247   24.4912 O   0  0  0  0  0  0  0  0  0  0  0  0
   13.9520   -5.1698   26.7406 O   0  0  0  0  0  0  0  0  0  0  0  0
   12.6410   -8.9334   27.5358 O   0  0  0  0  0  0  0  0  0  0  0  0
  1  5  1  0  0  0  0
  1 18  1  1  0  0  0
  2 18  1  6  0  0  0
  2  3  1  0  0  0  0
  2 12  1  0  0  0  0
  3 19  1  1  0  0  0
  3  4  1  0  0  0  0
  4 20  1  6  0  0  0
  4 10  1  0  0  0  0
  5  6  1  0  0  0  0
  5 14  1  6  0  0  0
  6 21  1  6  0  0  0
  7 13  1  1  0  0  0
  7  6  1  0  0  0  0
  8  9  1  6  0  0  0
  8  7  1  0  0  0  0
 10 16  1  1  0  0  0
 11 10  1  0  0  0  0
 12 17  1  1  0  0  0
 12 11  1  0  0  0  0
 15  9  1  0  0  0  0
 22  8  1  0  0  0  0
 22  1  1  0  0  0  0
M  END
>  <CHROM.1>
-107.15147969,-41.91737131,-67.45633202,14.58672965,-9.10001578,26.63993084
2.35378627,0.73811426,0.07353788

>  <Name>
lig.pdb

>  <RI>
0

>  <Rbt.Current_Directory>
/home/itssahil/PROJECTS/Mol_Feturizer/New_Systems/rnas/5bxk

>  <Rbt.Executable>
rbdock ($Id: //depot/dev/client3/rdock/2013.1/src/exe/rbdock.cxx#4 $)

>  <Rbt.Library>
libRbt.so (2013.1, Build901 2013/11/27)

>  <Rbt.Parameter_File>
/export/apps/rDock/src/rDock_2013.1_src/data/scripts/dock_solv.prm

>  <Rbt.Receptor>
prm/pocket_docking_6.prm

>  <SCORE>
-5.5439

>  <SCORE.INTER>
-8.17023

>  <SCORE.INTER.CONST>
1

>  <SCORE.INTER.POLAR>
0

>  <SCORE.INTER.ROT>
3

>  <SCORE.INTER.SOLV>
16.4051

>  <SCORE.INTER.VDW>
-16.5152

>  <SCORE.INTER.norm>
-0.371374

>  <SCORE.INTRA>
2.62634

>  <SCORE.INTRA.DIHEDRAL>
0.824746

>  <SCORE.INTRA.DIHEDRAL.0>
7.18044

>  <SCORE.INTRA.POLAR>
0

>  <SCORE.INTRA.POLAR.0>
0

>  <SCORE.INTRA.REPUL>
0

>  <SCORE.INTRA.REPUL.0>
0

>  <SCORE.INTRA.SOLV>
3.78494

>  <SCORE.INTRA.SOLV.lig_0>
-72.0615

>  <SCORE.INTRA.VDW>
0.321491

>  <SCORE.INTRA.VDW.0>
-1.54792

>  <SCORE.INTRA.norm>
0.119379

>  <SCORE.RESTR>
0

>  <SCORE.RESTR.CAVITY>
0

>  <SCORE.RESTR.norm>
0

>  <SCORE.SYSTEM>
0

>  <SCORE.SYSTEM.CONST>
0

>  <SCORE.SYSTEM.DIHEDRAL>
0

>  <SCORE.SYSTEM.SOLV>
0

>  <SCORE.SYSTEM.norm>
0

>  <SCORE.heavy>
22

>  <SCORE.norm>
-0.251995

>  <RMSD>
6.843

$$$$
lig.pdb
 OpenBabel11021811523D
libRbt.so/2013.1/901 2013/11/27
 22 23  0  0  0  0  0  0  0  0999 V2000
   16.0162   -8.1643   25.2006 C   0  0  1  0  0  0  0  0  0  0  0  0
   15.8420  -10.6391   25.5060 C   0  0  1  0  0  0  0  0  0  0  0  0
   14.6637  -11.7418   25.7972 C   0  0  1  0  0  0  0  0  0  0  0  0
   15.3788  -13.1679   26.0204 C   0  0  2  0  0  0  0  0  0  0  0  0
   16.7250   -7.6137   26.5191 C   0  0  1  0  0  0  0  0  0  0  0  0
   15.6480   -7.1141   27.5593 C   0  0  2  0  0  0  0  0  0  0  0  0
   14.8245   -5.9054   26.8936 C   0  0  1  0  0  0  0  0  0  0  0  0
   14.0247   -6.4287   25.5855 C   0  0  1  0  0  0  0  0  0  0  0  0
   13.1882   -5.3254   24.8802 C   0  0  0  0  0  0  0  0  0  0  0  0
   16.1259  -13.5552   24.6515 C   0  0  1  0  0  0  0  0  0  0  0  0
   17.2639  -12.4436   24.3908 C   0  0  0  0  0  0  0  0  0  0  0  0
   16.6120  -11.0062   24.2148 C   0  0  2  0  0  0  0  0  0  0  0  0
   13.8121   -5.3678   27.8089 F   0  0  0  0  0  0  0  0  0  0  0  0
   17.5765   -8.7773   27.0488 N   0  0  0  0  0  0  0  0  0  0  0  0
   12.1319   -4.7997   25.6650 N   0  0  0  0  0  0  0  0  0  0  0  0
   16.8265  -14.8705   24.7942 N   0  0  0  0  0  0  0  0  0  0  0  0
   17.6337   -9.9871   23.9940 N   0  0  0  0  0  0  0  0  0  0  0  0
   15.3271   -9.3489   25.2663 O   0  0  0  0  0  0  0  0  0  0  0  0
   13.9590  -11.3473   27.0559 O   0  0  0  0  0  0  0  0  0  0  0  0
   14.3878  -14.1076   26.2657 O   0  0  0  0  0  0  0  0  0  0  0  0
   16.2243   -6.7154   28.5049 O   0  0  0  0  0  0  0  0  0  0  0  0
   15.1000   -7.0429   24.6133 O   0  0  0  0  0  0  0  0  0  0  0  0
  1  5  1  0  0  0  0
  1 18  1  1  0  0  0
  2 18  1  6  0  0  0
  2  3  1  0  0  0  0
  2 12  1  0  0  0  0
  3 19  1  1  0  0  0
  3  4  1  0  0  0  0
  4 20  1  6  0  0  0
  4 10  1  0  0  0  0
  5  6  1  0  0  0  0
  5 14  1  1  0  0  0
  6 21  1  1  0  0  0
  7 13  1  1  0  0  0
  7  6  1  0  0  0  0
  8  9  1  6  0  0  0
  8  7  1  0  0  0  0
 10 16  1  1  0  0  0
 11 10  1  0  0  0  0
 12 17  1  1  0  0  0
 12 11  1  0  0  0  0
 15  9  1  0  0  0  0
 22  8  1  0  0  0  0
 22  1  1  0  0  0  0
M  END
>  <CHROM.1>
-65.81724268,168.72326235,-63.98441340,15.37806615,-9.28194693,25.87767870
-1.80795792,-0.24121644,-3.02576692

>  <Name>
lig.pdb

>  <RI>
0

>  <Rbt.Current_Directory>
/home/itssahil/PROJECTS/Mol_Feturizer/New_Systems/rnas/5bxk

>  <Rbt.Executable>
rbdock ($Id: //depot/dev/client3/rdock/2013.1/src/exe/rbdock.cxx#4 $)

>  <Rbt.Library>
libRbt.so (2013.1, Build901 2013/11/27)

>  <Rbt.Parameter_File>
/export/apps/rDock/src/rDock_2013.1_src/data/scripts/dock_solv.prm

>  <Rbt.Receptor>
prm/pocket_docking_5.prm

>  <SCORE>
-7.67745

>  <SCORE.INTER>
-6.94851

>  <SCORE.INTER.CONST>
1

>  <SCORE.INTER.POLAR>
0

>  <SCORE.INTER.ROT>
3

>  <SCORE.INTER.SOLV>
16.0037

>  <SCORE.INTER.VDW>
-15.5669

>  <SCORE.INTER.norm>
-0.315841

>  <SCORE.INTRA>
-0.728943

>  <SCORE.INTRA.DIHEDRAL>
-6.21959

>  <SCORE.INTRA.DIHEDRAL.0>
7.18044

>  <SCORE.INTRA.POLAR>
0

>  <SCORE.INTRA.POLAR.0>
0

>  <SCORE.INTRA.REPUL>
0

>  <SCORE.INTRA.REPUL.0>
0

>  <SCORE.INTRA.SOLV>
3.24459

>  <SCORE.INTRA.SOLV.lig_0>
-72.0615

>  <SCORE.INTRA.VDW>
0.75856

>  <SCORE.INTRA.VDW.0>
-1.54792

>  <SCORE.INTRA.norm>
-0.0331338

>  <SCORE.RESTR>
0

>  <SCORE.RESTR.CAVITY>
0

>  <SCORE.RESTR.norm>
0

>  <SCORE.SYSTEM>
0

>  <SCORE.SYSTEM.CONST>
0

>  <SCORE.SYSTEM.DIHEDRAL>
0

>  <SCORE.SYSTEM.SOLV>
0

>  <SCORE.SYSTEM.norm>
0

>  <SCORE.heavy>
22

>  <SCORE.norm>
-0.348975

>  <RMSD>
6.858

$$$$
lig.pdb
 OpenBabel11021811523D
libRbt.so/2013.1/901 2013/11/27
 22 23  0  0  0  0  0  0  0  0999 V2000
   15.7157   -7.0469   25.8557 C   0  0  1  0  0  0  0  0  0  0  0  0
   15.7582   -9.4816   25.2911 C   0  0  1  0  0  0  0  0  0  0  0  0
   16.8444  -10.5912   24.7637 C   0  0  1  0  0  0  0  0  0  0  0  0
   16.0589  -11.9842   24.5697 C   0  0  2  0  0  0  0  0  0  0  0  0
   16.2096   -5.6919   25.1745 C   0  0  1  0  0  0  0  0  0  0  0  0
   17.6271   -5.2768   25.7311 C   0  0  2  0  0  0  0  0  0  0  0  0
   17.4947   -5.0211   27.3120 C   0  0  1  0  0  0  0  0  0  0  0  0
   17.0631   -6.3894   28.0645 C   0  0  1  0  0  0  0  0  0  0  0  0
   16.9211   -6.2389   29.6045 C   0  0  0  0  0  0  0  0  0  0  0  0
   15.5119  -12.4371   26.0111 C   0  0  1  0  0  0  0  0  0  0  0  0
   14.4614  -11.3177   26.5029 C   0  0  0  0  0  0  0  0  0  0  0  0
   15.1777   -9.9091   26.6605 C   0  0  2  0  0  0  0  0  0  0  0  0
   18.7712   -4.6087   27.9052 F   0  0  0  0  0  0  0  0  0  0  0  0
   16.2149   -5.9657   23.6629 N   0  0  0  0  0  0  0  0  0  0  0  0
   18.1251   -5.9065   30.2740 N   0  0  0  0  0  0  0  0  0  0  0  0
   14.7563  -13.7249   25.9008 N   0  0  0  0  0  0  0  0  0  0  0  0
   14.2332   -8.8822   27.0901 N   0  0  0  0  0  0  0  0  0  0  0  0
   16.3439   -8.2206   25.5238 O   0  0  0  0  0  0  0  0  0  0  0  0
   17.3661  -10.1368   23.4379 O   0  0  0  0  0  0  0  0  0  0  0  0
   16.9720  -12.9297   24.1250 O   0  0  0  0  0  0  0  0  0  0  0  0
   17.9379   -4.2729   25.2012 O   0  0  0  0  0  0  0  0  0  0  0  0
   15.7123   -6.8606   27.4072 O   0  0  0  0  0  0  0  0  0  0  0  0
  1  5  1  0  0  0  0
  1 18  1  1  0  0  0
  2 18  1  1  0  0  0
  2  3  1  0  0  0  0
  2 12  1  0  0  0  0
  3 19  1  6  0  0  0
  3  4  1  0  0  0  0
  4 20  1  1  0  0  0
  4 10  1  0  0  0  0
  5  6  1  0  0  0  0
  5 14  1  6  0  0  0
  6 21  1  6  0  0  0
  7 13  1  1  0  0  0
  7  6  1  0  0  0  0
  8  9  1  1  0  0  0
  8  7  1  0  0  0  0
 10 16  1  6  0  0  0
 11 10  1  0  0  0  0
 12 17  1  6  0  0  0
 12 11  1  0  0  0  0
 15  9  1  0  0  0  0
 22  8  1  0  0  0  0
 22  1  1  0  0  0  0
M  END
>  <CHROM.1>
-139.04122508,173.92269087,-63.52562684,16.47554450,-8.25765997,26.18696912
-0.68421880,-1.24726126,-1.96852196

>  <Name>
lig.pdb

>  <RI>
0

>  <Rbt.Current_Directory>
/home/itssahil/PROJECTS/Mol_Feturizer/New_Systems/rnas/5bxk

>  <Rbt.Executable>
rbdock ($Id: //depot/dev/client3/rdock/2013.1/src/exe/rbdock.cxx#4 $)

>  <Rbt.Library>
libRbt.so (2013.1, Build901 2013/11/27)

>  <Rbt.Parameter_File>
/export/apps/rDock/src/rDock_2013.1_src/data/scripts/dock_solv.prm

>  <Rbt.Receptor>
prm/pocket_docking_6.prm

>  <SCORE>
-3.72111

>  <SCORE.INTER>
-5.38978

>  <SCORE.INTER.CONST>
1

>  <SCORE.INTER.POLAR>
0

>  <SCORE.INTER.ROT>
3

>  <SCORE.INTER.SOLV>
15.9477

>  <SCORE.INTER.VDW>
-14.5091

>  <SCORE.INTER.norm>
-0.24499

>  <SCORE.INTRA>
1.66866

>  <SCORE.INTRA.DIHEDRAL>
-1.47333

>  <SCORE.INTRA.DIHEDRAL.0>
7.18044

>  <SCORE.INTRA.POLAR>
0

>  <SCORE.INTRA.POLAR.0>
0

>  <SCORE.INTRA.REPUL>
0

>  <SCORE.INTRA.REPUL.0>
0

>  <SCORE.INTRA.SOLV>
1.66624

>  <SCORE.INTRA.SOLV.lig_0>
-72.0615

>  <SCORE.INTRA.VDW>
1.57221

>  <SCORE.INTRA.VDW.0>
-1.54792

>  <SCORE.INTRA.norm>
0.0758484

>  <SCORE.RESTR>
0

>  <SCORE.RESTR.CAVITY>
0

>  <SCORE.RESTR.norm>
0

>  <SCORE.SYSTEM>
0

>  <SCORE.SYSTEM.CONST>
0

>  <SCORE.SYSTEM.DIHEDRAL>
0

>  <SCORE.SYSTEM.SOLV>
0

>  <SCORE.SYSTEM.norm>
0

>  <SCORE.heavy>
22

>  <SCORE.norm>
-0.169142

>  <RMSD>
6.865

$$$$
lig.pdb
 OpenBabel11021811523D
libRbt.so/2013.1/901 2013/11/27
 22 23  0  0  0  0  0  0  0  0999 V2000
   18.1351  -14.3630   24.0197 C   0  0  1  0  0  0  0  0  0  0  0  0
   16.5689  -12.8433   25.2386 C   0  0  1  0  0  0  0  0  0  0  0  0
   16.7115  -11.4205   24.4356 C   0  0  1  0  0  0  0  0  0  0  0  0
   16.2850  -10.2456   25.4519 C   0  0  2  0  0  0  0  0  0  0  0  0
   18.2414  -15.5741   22.9872 C   0  0  1  0  0  0  0  0  0  0  0  0
   17.8491  -16.9338   23.6862 C   0  0  2  0  0  0  0  0  0  0  0  0
   18.8872  -17.2055   24.8824 C   0  0  1  0  0  0  0  0  0  0  0  0
   18.7696  -16.0378   25.9994 C   0  0  1  0  0  0  0  0  0  0  0  0
   19.7329  -16.2247   27.2042 C   0  0  0  0  0  0  0  0  0  0  0  0
   14.7413  -10.4732   25.8357 C   0  0  1  0  0  0  0  0  0  0  0  0
   14.6383  -11.8845   26.6077 C   0  0  0  0  0  0  0  0  0  0  0  0
   15.0985  -13.0744   25.6621 C   0  0  2  0  0  0  0  0  0  0  0  0
   18.6029  -18.4678   25.5733 F   0  0  0  0  0  0  0  0  0  0  0  0
   17.3103  -15.2080   21.8215 N   0  0  0  0  0  0  0  0  0  0  0  0
   21.1077  -16.2231   26.8606 N   0  0  0  0  0  0  0  0  0  0  0  0
   14.2814   -9.4182   26.7933 N   0  0  0  0  0  0  0  0  0  0  0  0
   15.0253  -14.3573   26.3549 N   0  0  0  0  0  0  0  0  0  0  0  0
   16.8923  -13.9533   24.4320 O   0  0  0  0  0  0  0  0  0  0  0  0
   18.1475  -11.2417   24.0585 O   0  0  0  0  0  0  0  0  0  0  0  0
   16.4011   -9.0376   24.7792 O   0  0  0  0  0  0  0  0  0  0  0  0
   17.9506  -17.7891   22.8839 O   0  0  0  0  0  0  0  0  0  0  0  0
   19.0354  -14.6744   25.2584 O   0  0  0  0  0  0  0  0  0  0  0  0
  1  5  1  0  0  0  0
  1 18  1  1  0  0  0
  2 18  1  6  0  0  0
  2  3  1  0  0  0  0
  2 12  1  0  0  0  0
  3 19  1  1  0  0  0
  3  4  1  0  0  0  0
  4 20  1  6  0  0  0
  4 10  1  0  0  0  0
  5  6  1  0  0  0  0
  5 14  1  6  0  0  0
  6 21  1  6  0  0  0
  7 13  1  1  0  0  0
  7  6  1  0  0  0  0
  8  9  1  1  0  0  0
  8  7  1  0  0  0  0
 10 16  1  1  0  0  0
 11 10  1  0  0  0  0
 12 17  1  1  0  0  0
 12 11  1  0  0  0  0
 15  9  1  0  0  0  0
 22  8  1  0  0  0  0
 22  1  1  0  0  0  0
M  END
>  <CHROM.1>
-174.03071402,73.86761067,61.06421051,17.33005122,-13.99561802,25.02917403
0.40347264,1.05581160,-1.91356760

>  <Name>
lig.pdb

>  <RI>
0

>  <Rbt.Current_Directory>
/home/itssahil/PROJECTS/Mol_Feturizer/New_Systems/rnas/5bxk

>  <Rbt.Executable>
rbdock ($Id: //depot/dev/client3/rdock/2013.1/src/exe/rbdock.cxx#4 $)

>  <Rbt.Library>
libRbt.so (2013.1, Build901 2013/11/27)

>  <Rbt.Parameter_File>
/export/apps/rDock/src/rDock_2013.1_src/data/scripts/dock_solv.prm

>  <Rbt.Receptor>
prm/pocket_docking_8.prm

>  <SCORE>
-10.0705

>  <SCORE.INTER>
-6.75645

>  <SCORE.INTER.CONST>
1

>  <SCORE.INTER.POLAR>
0

>  <SCORE.INTER.ROT>
3

>  <SCORE.INTER.SOLV>
17.4921

>  <SCORE.INTER.VDW>
-15.935

>  <SCORE.INTER.norm>
-0.307111

>  <SCORE.INTRA>
-3.31408

>  <SCORE.INTRA.DIHEDRAL>
-5.96477

>  <SCORE.INTRA.DIHEDRAL.0>
7.18044

>  <SCORE.INTRA.POLAR>
0

>  <SCORE.INTRA.POLAR.0>
0

>  <SCORE.INTRA.REPUL>
0

>  <SCORE.INTRA.REPUL.0>
0

>  <SCORE.INTRA.SOLV>
-0.445766

>  <SCORE.INTRA.SOLV.lig_0>
-72.0615

>  <SCORE.INTRA.VDW>
-0.108808

>  <SCORE.INTRA.VDW.0>
-1.54792

>  <SCORE.INTRA.norm>
-0.15064

>  <SCORE.RESTR>
0

>  <SCORE.RESTR.CAVITY>
0

>  <SCORE.RESTR.norm>
0

>  <SCORE.SYSTEM>
0

>  <SCORE.SYSTEM.CONST>
0

>  <SCORE.SYSTEM.DIHEDRAL>
0

>  <SCORE.SYSTEM.SOLV>
0

>  <SCORE.SYSTEM.norm>
0

>  <SCORE.heavy>
22

>  <SCORE.norm>
-0.457751

>  <RMSD>
6.876

$$$$
lig.pdb
 OpenBabel11021811523D
libRbt.so/2013.1/901 2013/11/27
 22 23  0  0  0  0  0  0  0  0999 V2000
   17.3204  -14.4692   23.5754 C   0  0  1  0  0  0  0  0  0  0  0  0
   16.5400  -12.3981   24.7373 C   0  0  1  0  0  0  0  0  0  0  0  0
   16.2772  -10.8237   24.3615 C   0  0  1  0  0  0  0  0  0  0  0  0
   15.8920  -10.0576   25.7253 C   0  0  2  0  0  0  0  0  0  0  0  0
   18.8105  -14.7416   23.0759 C   0  0  1  0  0  0  0  0  0  0  0  0
   18.9278  -14.4928   21.5217 C   0  0  2  0  0  0  0  0  0  0  0  0
   17.9527  -15.5249   20.7691 C   0  0  1  0  0  0  0  0  0  0  0  0
   16.4129  -15.2441   21.1874 C   0  0  1  0  0  0  0  0  0  0  0  0
   15.3937  -16.1919   20.4965 C   0  0  0  0  0  0  0  0  0  0  0  0
   14.5224  -10.6973   26.2705 C   0  0  1  0  0  0  0  0  0  0  0  0
   14.8149  -12.2448   26.6140 C   0  0  0  0  0  0  0  0  0  0  0  0
   15.2501  -13.0354   25.3073 C   0  0  2  0  0  0  0  0  0  0  0  0
   18.0192  -15.3722   19.3118 F   0  0  0  0  0  0  0  0  0  0  0  0
   19.7029  -13.8040   23.9030 N   0  0  0  0  0  0  0  0  0  0  0  0
   14.0486  -15.9986   20.8983 N   0  0  0  0  0  0  0  0  0  0  0  0
   14.1119  -10.0371   27.5500 N   0  0  0  0  0  0  0  0  0  0  0  0
   15.5338  -14.4355   25.6078 N   0  0  0  0  0  0  0  0  0  0  0  0
   16.8599  -13.1771   23.6068 O   0  0  0  0  0  0  0  0  0  0  0  0
   17.5523  -10.2547   23.8260 O   0  0  0  0  0  0  0  0  0  0  0  0
   15.6659   -8.7241   25.4155 O   0  0  0  0  0  0  0  0  0  0  0  0
   20.0408  -14.7133   21.2086 O   0  0  0  0  0  0  0  0  0  0  0  0
   16.3400  -15.3681   22.7551 O   0  0  0  0  0  0  0  0  0  0  0  0
  1  5  1  0  0  0  0
  1 18  1  6  0  0  0
  2 18  1  6  0  0  0
  2  3  1  0  0  0  0
  2 12  1  0  0  0  0
  3 19  1  1  0  0  0
  3  4  1  0  0  0  0
  4 20  1  6  0  0  0
  4 10  1  0  0  0  0
  5  6  1  0  0  0  0
  5 14  1  1  0  0  0
  6 21  1  6  0  0  0
  7 13  1  6  0  0  0
  7  6  1  0  0  0  0
  8  9  1  6  0  0  0
  8  7  1  0  0  0  0
 10 16  1  1  0  0  0
 11 10  1  0  0  0  0
 12 17  1  1  0  0  0
 12 11  1  0  0  0  0
 15  9  1  0  0  0  0
 22  8  1  0  0  0  0
 22  1  1  0  0  0  0
M  END
>  <CHROM.1>
-112.22008195,169.88056959,177.27970832,16.67373832,-13.27529352,23.45648780
-1.23540377,0.33553861,0.69460457

>  <Name>
lig.pdb

>  <RI>
0

>  <Rbt.Current_Directory>
/home/itssahil/PROJECTS/Mol_Feturizer/New_Systems/rnas/5bxk

>  <Rbt.Executable>
rbdock ($Id: //depot/dev/client3/rdock/2013.1/src/exe/rbdock.cxx#4 $)

>  <Rbt.Library>
libRbt.so (2013.1, Build901 2013/11/27)

>  <Rbt.Parameter_File>
/export/apps/rDock/src/rDock_2013.1_src/data/scripts/dock_solv.prm

>  <Rbt.Receptor>
prm/pocket_docking_6.prm

>  <SCORE>
-7.06472

>  <SCORE.INTER>
-8.20071

>  <SCORE.INTER.CONST>
1

>  <SCORE.INTER.POLAR>
0

>  <SCORE.INTER.ROT>
3

>  <SCORE.INTER.SOLV>
15.3106

>  <SCORE.INTER.VDW>
-16.1707

>  <SCORE.INTER.norm>
-0.372759

>  <SCORE.INTRA>
1.12682

>  <SCORE.INTRA.DIHEDRAL>
0.122408

>  <SCORE.INTRA.DIHEDRAL.0>
7.18044

>  <SCORE.INTRA.POLAR>
0

>  <SCORE.INTRA.POLAR.0>
0

>  <SCORE.INTRA.REPUL>
0

>  <SCORE.INTRA.REPUL.0>
0

>  <SCORE.INTRA.SOLV>
0.302635

>  <SCORE.INTRA.SOLV.lig_0>
-72.0615

>  <SCORE.INTRA.VDW>
0.914295

>  <SCORE.INTRA.VDW.0>
-1.54792

>  <SCORE.INTRA.norm>
0.0512189

>  <SCORE.RESTR>
0.00917306

>  <SCORE.RESTR.CAVITY>
0.00917306

>  <SCORE.RESTR.norm>
0.000416957

>  <SCORE.SYSTEM>
0

>  <SCORE.SYSTEM.CONST>
0

>  <SCORE.SYSTEM.DIHEDRAL>
0

>  <SCORE.SYSTEM.SOLV>
0

>  <SCORE.SYSTEM.norm>
0

>  <SCORE.heavy>
22

>  <SCORE.norm>
-0.321124

>  <RMSD>
6.880

$$$$
lig.pdb
 OpenBabel11021811523D
libRbt.so/2013.1/901 2013/11/27
 22 23  0  0  0  0  0  0  0  0999 V2000
   18.0698  -14.4388   23.8499 C   0  0  1  0  0  0  0  0  0  0  0  0
   16.5784  -12.9020   25.1391 C   0  0  1  0  0  0  0  0  0  0  0  0
   16.7131  -11.4749   24.3426 C   0  0  1  0  0  0  0  0  0  0  0  0
   16.3470  -10.3020   25.3844 C   0  0  2  0  0  0  0  0  0  0  0  0
   18.1190  -15.6799   22.8492 C   0  0  1  0  0  0  0  0  0  0  0  0
   17.7564  -17.0165   23.6063 C   0  0  2  0  0  0  0  0  0  0  0  0
   18.8517  -17.2594   24.7568 C   0  0  1  0  0  0  0  0  0  0  0  0
   18.7952  -16.0592   25.8435 C   0  0  1  0  0  0  0  0  0  0  0  0
   19.8167  -16.2167   27.0038 C   0  0  0  0  0  0  0  0  0  0  0  0
   14.8160  -10.5072   25.8271 C   0  0  1  0  0  0  0  0  0  0  0  0
   14.7197  -11.9233   26.5913 C   0  0  0  0  0  0  0  0  0  0  0  0
   15.1221  -13.1124   25.6186 C   0  0  2  0  0  0  0  0  0  0  0  0
   18.5969  -18.4995   25.4975 F   0  0  0  0  0  0  0  0  0  0  0  0
   17.1325  -15.3423   21.7211 N   0  0  0  0  0  0  0  0  0  0  0  0
   21.1684  -16.3008   26.5867 N   0  0  0  0  0  0  0  0  0  0  0  0
   14.4121   -9.4532   26.8106 N   0  0  0  0  0  0  0  0  0  0  0  0
   15.0546  -14.3999   26.3034 N   0  0  0  0  0  0  0  0  0  0  0  0
   16.8509  -14.0102   24.3115 O   0  0  0  0  0  0  0  0  0  0  0  0
   18.1360  -11.3166   23.9104 O   0  0  0  0  0  0  0  0  0  0  0  0
   16.4568   -9.0902   24.7173 O   0  0  0  0  0  0  0  0  0  0  0  0
   17.8139  -17.8952   22.8253 O   0  0  0  0  0  0  0  0  0  0  0  0
   19.0295  -14.7194   25.0507 O   0  0  0  0  0  0  0  0  0  0  0  0
  1  5  1  0  0  0  0
  1 18  1  1  0  0  0
  2 18  1  6  0  0  0
  2  3  1  0  0  0  0
  2 12  1  0  0  0  0
  3 19  1  1  0  0  0
  3  4  1  0  0  0  0
  4 20  1  6  0  0  0
  4 10  1  0  0  0  0
  5  6  1  0  0  0  0
  5 14  1  6  0  0  0
  6 21  1  6  0  0  0
  7 13  1  1  0  0  0
  7  6  1  0  0  0  0
  8  9  1  1  0  0  0
  8  7  1  0  0  0  0
 10 16  1  1  0  0  0
 11 10  1  0  0  0  0
 12 17  1  1  0  0  0
 12 11  1  0  0  0  0
 15  9  1  0  0  0  0
 22  8  1  0  0  0  0
 22  1  1  0  0  0  0
M  END
>  <CHROM.1>
-176.46711637,74.05485787,58.03663025,17.32691725,-14.05315212,24.92534985
0.56801830,1.02190359,-2.08391649

>  <Name>
lig.pdb

>  <RI>
0

>  <Rbt.Current_Directory>
/home/itssahil/PROJECTS/Mol_Feturizer/New_Systems/rnas/5bxk

>  <Rbt.Executable>
rbdock ($Id: //depot/dev/client3/rdock/2013.1/src/exe/rbdock.cxx#4 $)

>  <Rbt.Library>
libRbt.so (2013.1, Build901 2013/11/27)

>  <Rbt.Parameter_File>
/export/apps/rDock/src/rDock_2013.1_src/data/scripts/dock_solv.prm

>  <Rbt.Receptor>
prm/pocket_docking_7.prm

>  <SCORE>
-10.0786

>  <SCORE.INTER>
-6.73849

>  <SCORE.INTER.CONST>
1

>  <SCORE.INTER.POLAR>
0

>  <SCORE.INTER.ROT>
3

>  <SCORE.INTER.SOLV>
16.1007

>  <SCORE.INTER.VDW>
-15.4592

>  <SCORE.INTER.norm>
-0.306295

>  <SCORE.INTRA>
-3.34014

>  <SCORE.INTRA.DIHEDRAL>
-6.04077

>  <SCORE.INTRA.DIHEDRAL.0>
7.18044

>  <SCORE.INTRA.POLAR>
0

>  <SCORE.INTRA.POLAR.0>
0

>  <SCORE.INTRA.REPUL>
0

>  <SCORE.INTRA.REPUL.0>
0

>  <SCORE.INTRA.SOLV>
-0.426149

>  <SCORE.INTRA.SOLV.lig_0>
-72.0615

>  <SCORE.INTRA.VDW>
-0.106677

>  <SCORE.INTRA.VDW.0>
-1.54792

>  <SCORE.INTRA.norm>
-0.151824

>  <SCORE.RESTR>
0

>  <SCORE.RESTR.CAVITY>
0

>  <SCORE.RESTR.norm>
0

>  <SCORE.SYSTEM>
0

>  <SCORE.SYSTEM.CONST>
0

>  <SCORE.SYSTEM.DIHEDRAL>
0

>  <SCORE.SYSTEM.SOLV>
0

>  <SCORE.SYSTEM.norm>
0

>  <SCORE.heavy>
22

>  <SCORE.norm>
-0.458119

>  <RMSD>
6.909

$$$$
lig.pdb
 OpenBabel11021811523D
libRbt.so/2013.1/901 2013/11/27
 22 23  0  0  0  0  0  0  0  0999 V2000
   15.9587   -5.4469   27.1661 C   0  0  1  0  0  0  0  0  0  0  0  0
   16.1706   -7.8810   26.6383 C   0  0  1  0  0  0  0  0  0  0  0  0
   14.5873   -8.2444   26.4144 C   0  0  1  0  0  0  0  0  0  0  0  0
   14.4196   -9.8323   26.6278 C   0  0  2  0  0  0  0  0  0  0  0  0
   16.3434   -3.9695   26.7042 C   0  0  1  0  0  0  0  0  0  0  0  0
   17.8673   -3.6778   26.9941 C   0  0  2  0  0  0  0  0  0  0  0  0
   18.1101   -3.7842   28.5790 C   0  0  1  0  0  0  0  0  0  0  0  0
   17.8016   -5.2900   29.0910 C   0  0  1  0  0  0  0  0  0  0  0  0
   18.0212   -5.4899   30.6163 C   0  0  0  0  0  0  0  0  0  0  0  0
   15.2871  -10.5683   25.4930 C   0  0  1  0  0  0  0  0  0  0  0  0
   16.8318  -10.1764   25.7353 C   0  0  0  0  0  0  0  0  0  0  0  0
   17.0413   -8.6093   25.5865 C   0  0  2  0  0  0  0  0  0  0  0  0
   19.5051   -3.5045   28.9356 F   0  0  0  0  0  0  0  0  0  0  0  0
   15.9919   -3.8974   25.2105 N   0  0  0  0  0  0  0  0  0  0  0  0
   17.7865   -6.8104   31.0737 N   0  0  0  0  0  0  0  0  0  0  0  0
   15.1863  -12.0546   25.6419 N   0  0  0  0  0  0  0  0  0  0  0  0
   18.4340   -8.2388   25.8196 N   0  0  0  0  0  0  0  0  0  0  0  0
   16.4425   -6.5110   26.4476 O   0  0  0  0  0  0  0  0  0  0  0  0
   13.7935   -7.5256   27.4582 O   0  0  0  0  0  0  0  0  0  0  0  0
   13.0819  -10.1487   26.4381 O   0  0  0  0  0  0  0  0  0  0  0  0
   18.0929   -2.5780   26.6408 O   0  0  0  0  0  0  0  0  0  0  0  0
   16.3172   -5.6133   28.6779 O   0  0  0  0  0  0  0  0  0  0  0  0
  1  5  1  0  0  0  0
  1 18  1  6  0  0  0
  2 18  1  6  0  0  0
  2  3  1  0  0  0  0
  2 12  1  0  0  0  0
  3 19  1  1  0  0  0
  3  4  1  0  0  0  0
  4 20  1  6  0  0  0
  4 10  1  0  0  0  0
  5  6  1  0  0  0  0
  5 14  1  6  0  0  0
  6 21  1  1  0  0  0
  7 13  1  6  0  0  0
  7  6  1  0  0  0  0
  8  9  1  1  0  0  0
  8  7  1  0  0  0  0
 10 16  1  1  0  0  0
 11 10  1  0  0  0  0
 12 17  1  1  0  0  0
 12 11  1  0  0  0  0
 15  9  1  0  0  0  0
 22  8  1  0  0  0  0
 22  1  1  0  0  0  0
M  END
>  <CHROM.1>
-176.36013500,62.82669629,-178.55061114,16.52530089,-6.75078737,27.21582114
0.54645509,-1.05019821,-0.61180855

>  <Name>
lig.pdb

>  <RI>
0

>  <Rbt.Current_Directory>
/home/itssahil/PROJECTS/Mol_Feturizer/New_Systems/rnas/5bxk

>  <Rbt.Executable>
rbdock ($Id: //depot/dev/client3/rdock/2013.1/src/exe/rbdock.cxx#4 $)

>  <Rbt.Library>
libRbt.so (2013.1, Build901 2013/11/27)

>  <Rbt.Parameter_File>
/export/apps/rDock/src/rDock_2013.1_src/data/scripts/dock_solv.prm

>  <Rbt.Receptor>
prm/pocket_docking_6.prm

>  <SCORE>
-5.76549

>  <SCORE.INTER>
-1.48845

>  <SCORE.INTER.CONST>
1

>  <SCORE.INTER.POLAR>
0

>  <SCORE.INTER.ROT>
3

>  <SCORE.INTER.SOLV>
12.4034

>  <SCORE.INTER.VDW>
-10.7268

>  <SCORE.INTER.norm>
-0.0676567

>  <SCORE.INTRA>
-4.27704

>  <SCORE.INTRA.DIHEDRAL>
-6.93502

>  <SCORE.INTRA.DIHEDRAL.0>
7.18044

>  <SCORE.INTRA.POLAR>
0

>  <SCORE.INTRA.POLAR.0>
0

>  <SCORE.INTRA.REPUL>
0

>  <SCORE.INTRA.REPUL.0>
0

>  <SCORE.INTRA.SOLV>
-1.77655

>  <SCORE.INTRA.SOLV.lig_0>
-72.0615

>  <SCORE.INTRA.VDW>
0.0787467

>  <SCORE.INTRA.VDW.0>
-1.54792

>  <SCORE.INTRA.norm>
-0.194411

>  <SCORE.RESTR>
0

>  <SCORE.RESTR.CAVITY>
0

>  <SCORE.RESTR.norm>
0

>  <SCORE.SYSTEM>
0

>  <SCORE.SYSTEM.CONST>
0

>  <SCORE.SYSTEM.DIHEDRAL>
0

>  <SCORE.SYSTEM.SOLV>
0

>  <SCORE.SYSTEM.norm>
0

>  <SCORE.heavy>
22

>  <SCORE.norm>
-0.262068

>  <RMSD>
6.934

$$$$
lig.pdb
 OpenBabel11021811523D
libRbt.so/2013.1/901 2013/11/27
 22 23  0  0  0  0  0  0  0  0999 V2000
   18.5916   -8.5498   28.5669 C   0  0  1  0  0  0  0  0  0  0  0  0
   17.3878   -9.3264   30.6154 C   0  0  1  0  0  0  0  0  0  0  0  0
   16.0237   -9.9164   29.9223 C   0  0  1  0  0  0  0  0  0  0  0  0
   14.8767   -9.9401   31.0532 C   0  0  2  0  0  0  0  0  0  0  0  0
   19.8622   -8.7834   27.6314 C   0  0  1  0  0  0  0  0  0  0  0  0
   21.1660   -8.2154   28.3161 C   0  0  2  0  0  0  0  0  0  0  0  0
   20.9813   -6.6323   28.5207 C   0  0  1  0  0  0  0  0  0  0  0  0
   19.7433   -6.3399   29.5241 C   0  0  1  0  0  0  0  0  0  0  0  0
   19.4965   -4.8290   29.7901 C   0  0  0  0  0  0  0  0  0  0  0  0
   15.3535  -10.9527   32.2062 C   0  0  1  0  0  0  0  0  0  0  0  0
   16.7014  -10.3493   32.8523 C   0  0  0  0  0  0  0  0  0  0  0  0
   17.8519  -10.2568   31.7616 C   0  0  2  0  0  0  0  0  0  0  0  0
   22.1645   -6.0215   29.1358 F   0  0  0  0  0  0  0  0  0  0  0  0
   19.9240  -10.2987   27.3868 N   0  0  0  0  0  0  0  0  0  0  0  0
   18.4008   -4.5564   30.6463 N   0  0  0  0  0  0  0  0  0  0  0  0
   14.3345  -11.0126   33.3014 N   0  0  0  0  0  0  0  0  0  0  0  0
   19.0741   -9.6963   32.3302 N   0  0  0  0  0  0  0  0  0  0  0  0
   18.4750   -9.2859   29.7189 O   0  0  0  0  0  0  0  0  0  0  0  0
   15.6138   -8.9790   28.8316 O   0  0  0  0  0  0  0  0  0  0  0  0
   13.7187  -10.4403   30.4751 O   0  0  0  0  0  0  0  0  0  0  0  0
   22.0664   -8.4086   27.5831 O   0  0  0  0  0  0  0  0  0  0  0  0
   18.4756   -7.0255   28.8906 O   0  0  0  0  0  0  0  0  0  0  0  0
  1  5  1  0  0  0  0
  1 18  1  1  0  0  0
  2 18  1  6  0  0  0
  2  3  1  0  0  0  0
  2 12  1  0  0  0  0
  3 19  1  6  0  0  0
  3  4  1  0  0  0  0
  4 20  1  6  0  0  0
  4 10  1  0  0  0  0
  5  6  1  0  0  0  0
  5 14  1  1  0  0  0
  6 21  1  6  0  0  0
  7 13  1  1  0  0  0
  7  6  1  0  0  0  0
  8  9  1  6  0  0  0
  8  7  1  0  0  0  0
 10 16  1  1  0  0  0
 11 10  1  0  0  0  0
 12 17  1  1  0  0  0
 12 11  1  0  0  0  0
 15  9  1  0  0  0  0
 22  8  1  0  0  0  0
 22  1  1  0  0  0  0
M  END
>  <CHROM.1>
-173.71956430,63.35720319,178.86892436,18.24158449,-8.58442420,29.92167743
-0.27998593,-0.63522663,-2.72975736

>  <Name>
lig.pdb

>  <RI>
0

>  <Rbt.Current_Directory>
/home/itssahil/PROJECTS/Mol_Feturizer/New_Systems/rnas/5bxk

>  <Rbt.Executable>
rbdock ($Id: //depot/dev/client3/rdock/2013.1/src/exe/rbdock.cxx#4 $)

>  <Rbt.Library>
libRbt.so (2013.1, Build901 2013/11/27)

>  <Rbt.Parameter_File>
/export/apps/rDock/src/rDock_2013.1_src/data/scripts/dock_solv.prm

>  <Rbt.Receptor>
prm/pocket_docking_8.prm

>  <SCORE>
-6.77186

>  <SCORE.INTER>
-2.58514

>  <SCORE.INTER.CONST>
1

>  <SCORE.INTER.POLAR>
0

>  <SCORE.INTER.ROT>
3

>  <SCORE.INTER.SOLV>
16.2035

>  <SCORE.INTER.VDW>
-12.7246

>  <SCORE.INTER.norm>
-0.117507

>  <SCORE.INTRA>
-4.18671

>  <SCORE.INTRA.DIHEDRAL>
-6.79945

>  <SCORE.INTRA.DIHEDRAL.0>
7.18044

>  <SCORE.INTRA.POLAR>
0

>  <SCORE.INTRA.POLAR.0>
0

>  <SCORE.INTRA.REPUL>
0

>  <SCORE.INTRA.REPUL.0>
0

>  <SCORE.INTRA.SOLV>
-1.73365

>  <SCORE.INTRA.SOLV.lig_0>
-72.0615

>  <SCORE.INTRA.VDW>
0.0798366

>  <SCORE.INTRA.VDW.0>
-1.54792

>  <SCORE.INTRA.norm>
-0.190305

>  <SCORE.RESTR>
0

>  <SCORE.RESTR.CAVITY>
0

>  <SCORE.RESTR.norm>
0

>  <SCORE.SYSTEM>
0

>  <SCORE.SYSTEM.CONST>
0

>  <SCORE.SYSTEM.DIHEDRAL>
0

>  <SCORE.SYSTEM.SOLV>
0

>  <SCORE.SYSTEM.norm>
0

>  <SCORE.heavy>
22

>  <SCORE.norm>
-0.307812

>  <RMSD>
6.984

$$$$
lig.pdb
 OpenBabel11021811523D
libRbt.so/2013.1/901 2013/11/27
 22 23  0  0  0  0  0  0  0  0999 V2000
   17.8633  -14.3754   23.1704 C   0  0  1  0  0  0  0  0  0  0  0  0
   16.5377  -13.0283   24.8064 C   0  0  1  0  0  0  0  0  0  0  0  0
   16.7084  -11.5108   24.2086 C   0  0  1  0  0  0  0  0  0  0  0  0
   16.4595  -10.4810   25.4221 C   0  0  2  0  0  0  0  0  0  0  0  0
   17.7992  -15.5140   22.0552 C   0  0  1  0  0  0  0  0  0  0  0  0
   17.5481  -16.9244   22.7177 C   0  0  2  0  0  0  0  0  0  0  0  0
   18.7817  -17.2514   23.6943 C   0  0  1  0  0  0  0  0  0  0  0  0
   18.8497  -16.1618   24.8914 C   0  0  1  0  0  0  0  0  0  0  0  0
   20.0103  -16.4064   25.8952 C   0  0  0  0  0  0  0  0  0  0  0  0
   14.9443  -10.6758   25.9203 C   0  0  1  0  0  0  0  0  0  0  0  0
   14.8109  -12.1795   26.4855 C   0  0  0  0  0  0  0  0  0  0  0  0
   15.0986  -13.2368   25.3359 C   0  0  2  0  0  0  0  0  0  0  0  0
   18.6345  -18.5619   24.3366 F   0  0  0  0  0  0  0  0  0  0  0  0
   16.6755  -15.0924   21.0964 N   0  0  0  0  0  0  0  0  0  0  0  0
   20.0146  -15.5316   27.0101 N   0  0  0  0  0  0  0  0  0  0  0  0
   14.6483   -9.7536   27.0620 N   0  0  0  0  0  0  0  0  0  0  0  0
   14.9969  -14.6035   25.8387 N   0  0  0  0  0  0  0  0  0  0  0  0
   16.7077  -14.0200   23.8191 O   0  0  0  0  0  0  0  0  0  0  0  0
   18.1138  -11.3590   23.7207 O   0  0  0  0  0  0  0  0  0  0  0  0
   16.6002   -9.1936   24.9239 O   0  0  0  0  0  0  0  0  0  0  0  0
   17.5161  -17.7231   21.8537 O   0  0  0  0  0  0  0  0  0  0  0  0
   18.9690  -14.7477   24.2099 O   0  0  0  0  0  0  0  0  0  0  0  0
  1  5  1  0  0  0  0
  1 18  1  1  0  0  0
  2 18  1  6  0  0  0
  2  3  1  0  0  0  0
  2 12  1  0  0  0  0
  3 19  1  1  0  0  0
  3  4  1  0  0  0  0
  4 20  1  6  0  0  0
  4 10  1  0  0  0  0
  5  6  1  0  0  0  0
  5 14  1  6  0  0  0
  6 21  1  6  0  0  0
  7 13  1  1  0  0  0
  7  6  1  0  0  0  0
  8  9  1  1  0  0  0
  8  7  1  0  0  0  0
 10 16  1  1  0  0  0
 11 10  1  0  0  0  0
 12 17  1  1  0  0  0
 12 11  1  0  0  0  0
 15  9  1  0  0  0  0
 22  8  1  0  0  0  0
 22  1  1  0  0  0  0
M  END
>  <CHROM.1>
-178.50017375,69.43466041,-174.85139880,17.23446519,-14.07139786,24.45758948
0.79306699,0.99150194,-2.14615752

>  <Name>
lig.pdb

>  <RI>
0

>  <Rbt.Current_Directory>
/home/itssahil/PROJECTS/Mol_Feturizer/New_Systems/rnas/5bxk

>  <Rbt.Executable>
rbdock ($Id: //depot/dev/client3/rdock/2013.1/src/exe/rbdock.cxx#4 $)

>  <Rbt.Library>
libRbt.so (2013.1, Build901 2013/11/27)

>  <Rbt.Parameter_File>
/export/apps/rDock/src/rDock_2013.1_src/data/scripts/dock_solv.prm

>  <Rbt.Receptor>
prm/pocket_docking_7.prm

>  <SCORE>
-8.94999

>  <SCORE.INTER>
-4.8798

>  <SCORE.INTER.CONST>
1

>  <SCORE.INTER.POLAR>
0

>  <SCORE.INTER.ROT>
3

>  <SCORE.INTER.SOLV>
16.9318

>  <SCORE.INTER.VDW>
-14.4971

>  <SCORE.INTER.norm>
-0.221809

>  <SCORE.INTRA>
-4.07019

>  <SCORE.INTRA.DIHEDRAL>
-6.50758

>  <SCORE.INTRA.DIHEDRAL.0>
7.18044

>  <SCORE.INTRA.POLAR>
0

>  <SCORE.INTRA.POLAR.0>
0

>  <SCORE.INTRA.REPUL>
0

>  <SCORE.INTRA.REPUL.0>
0

>  <SCORE.INTRA.SOLV>
-1.70406

>  <SCORE.INTRA.SOLV.lig_0>
-72.0615

>  <SCORE.INTRA.VDW>
0.0356303

>  <SCORE.INTRA.VDW.0>
-1.54792

>  <SCORE.INTRA.norm>
-0.185009

>  <SCORE.RESTR>
0

>  <SCORE.RESTR.CAVITY>
0

>  <SCORE.RESTR.norm>
0

>  <SCORE.SYSTEM>
0

>  <SCORE.SYSTEM.CONST>
0

>  <SCORE.SYSTEM.DIHEDRAL>
0

>  <SCORE.SYSTEM.SOLV>
0

>  <SCORE.SYSTEM.norm>
0

>  <SCORE.heavy>
22

>  <SCORE.norm>
-0.406818

>  <RMSD>
6.988

$$$$
lig.pdb
 OpenBabel11021811523D
libRbt.so/2013.1/901 2013/11/27
 22 23  0  0  0  0  0  0  0  0999 V2000
   14.5648   -8.8211   29.2372 C   0  0  1  0  0  0  0  0  0  0  0  0
   15.4211  -10.0844   27.2575 C   0  0  1  0  0  0  0  0  0  0  0  0
   14.8994  -11.3431   26.3450 C   0  0  1  0  0  0  0  0  0  0  0  0
   16.1278  -11.8072   25.4119 C   0  0  2  0  0  0  0  0  0  0  0  0
   15.1640   -9.5142   30.5429 C   0  0  1  0  0  0  0  0  0  0  0  0
   14.1222  -10.5267   31.1600 C   0  0  2  0  0  0  0  0  0  0  0  0
   12.8103   -9.7039   31.5893 C   0  0  1  0  0  0  0  0  0  0  0  0
   12.1189   -9.0359   30.2852 C   0  0  1  0  0  0  0  0  0  0  0  0
   10.8317   -8.2264   30.6046 C   0  0  0  0  0  0  0  0  0  0  0  0
   16.4915  -10.5784   24.4425 C   0  0  1  0  0  0  0  0  0  0  0  0
   16.9843   -9.3580   25.3733 C   0  0  0  0  0  0  0  0  0  0  0  0
   15.8217   -8.8956   26.3513 C   0  0  2  0  0  0  0  0  0  0  0  0
   11.7962  -10.5739   32.1943 F   0  0  0  0  0  0  0  0  0  0  0  0
   16.4659  -10.1931   30.0915 N   0  0  0  0  0  0  0  0  0  0  0  0
    9.7986   -8.9839   31.2105 N   0  0  0  0  0  0  0  0  0  0  0  0
   17.6403  -10.9388   23.5526 N   0  0  0  0  0  0  0  0  0  0  0  0
   16.2604   -7.8008   27.2116 N   0  0  0  0  0  0  0  0  0  0  0  0
   14.4129   -9.5738   28.1002 O   0  0  0  0  0  0  0  0  0  0  0  0
   14.5351  -12.4644   27.2650 O   0  0  0  0  0  0  0  0  0  0  0  0
   15.6938  -12.8716   24.6346 O   0  0  0  0  0  0  0  0  0  0  0  0
   14.6122  -11.0018   32.1189 O   0  0  0  0  0  0  0  0  0  0  0  0
   13.2132   -8.1296   29.6071 O   0  0  0  0  0  0  0  0  0  0  0  0
  1  5  1  0  0  0  0
  1 18  1  6  0  0  0
  2 18  1  1  0  0  0
  2  3  1  0  0  0  0
  2 12  1  0  0  0  0
  3 19  1  1  0  0  0
  3  4  1  0  0  0  0
  4 20  1  6  0  0  0
  4 10  1  0  0  0  0
  5  6  1  0  0  0  0
  5 14  1  6  0  0  0
  6 21  1  1  0  0  0
  7 13  1  6  0  0  0
  7  6  1  0  0  0  0
  8  9  1  1  0  0  0
  8  7  1  0  0  0  0
 10 16  1  6  0  0  0
 11 10  1  0  0  0  0
 12 17  1  1  0  0  0
 12 11  1  0  0  0  0
 15  9  1  0  0  0  0
 22  8  1  0  0  0  0
 22  1  1  0  0  0  0
M  END
>  <CHROM.1>
-70.30965943,159.39894712,-59.74132187,14.48378415,-10.05280066,28.45346324
-3.00763087,-0.98393117,3.08469998

>  <Name>
lig.pdb

>  <RI>
0

>  <Rbt.Current_Directory>
/home/itssahil/PROJECTS/Mol_Feturizer/New_Systems/rnas/5bxk

>  <Rbt.Executable>
rbdock ($Id: //depot/dev/client3/rdock/2013.1/src/exe/rbdock.cxx#4 $)

>  <Rbt.Library>
libRbt.so (2013.1, Build901 2013/11/27)

>  <Rbt.Parameter_File>
/export/apps/rDock/src/rDock_2013.1_src/data/scripts/dock_solv.prm

>  <Rbt.Receptor>
prm/pocket_docking_8.prm

>  <SCORE>
-5.67606

>  <SCORE.INTER>
-5.01924

>  <SCORE.INTER.CONST>
1

>  <SCORE.INTER.POLAR>
0

>  <SCORE.INTER.ROT>
3

>  <SCORE.INTER.SOLV>
21.4848

>  <SCORE.INTER.VDW>
-16.1078

>  <SCORE.INTER.norm>
-0.228147

>  <SCORE.INTRA>
-0.656815

>  <SCORE.INTRA.DIHEDRAL>
-4.65297

>  <SCORE.INTRA.DIHEDRAL.0>
7.18044

>  <SCORE.INTRA.POLAR>
0

>  <SCORE.INTRA.POLAR.0>
0

>  <SCORE.INTRA.REPUL>
0

>  <SCORE.INTRA.REPUL.0>
0

>  <SCORE.INTRA.SOLV>
2.51539

>  <SCORE.INTRA.SOLV.lig_0>
-72.0615

>  <SCORE.INTRA.VDW>
0.411976

>  <SCORE.INTRA.VDW.0>
-1.54792

>  <SCORE.INTRA.norm>
-0.0298552

>  <SCORE.RESTR>
0

>  <SCORE.RESTR.CAVITY>
0

>  <SCORE.RESTR.norm>
0

>  <SCORE.SYSTEM>
0

>  <SCORE.SYSTEM.CONST>
0

>  <SCORE.SYSTEM.DIHEDRAL>
0

>  <SCORE.SYSTEM.SOLV>
0

>  <SCORE.SYSTEM.norm>
0

>  <SCORE.heavy>
22

>  <SCORE.norm>
-0.258003

>  <RMSD>
6.989

$$$$
lig.pdb
 OpenBabel11021811523D
libRbt.so/2013.1/901 2013/11/27
 22 23  0  0  0  0  0  0  0  0999 V2000
   17.1033  -14.6533   22.9247 C   0  0  1  0  0  0  0  0  0  0  0  0
   17.0039  -13.2575   24.9960 C   0  0  1  0  0  0  0  0  0  0  0  0
   17.8907  -12.0087   24.4101 C   0  0  1  0  0  0  0  0  0  0  0  0
   17.5368  -10.7075   25.2914 C   0  0  2  0  0  0  0  0  0  0  0  0
   17.1614  -16.1449   22.3626 C   0  0  1  0  0  0  0  0  0  0  0  0
   18.6218  -16.7293   22.4928 C   0  0  2  0  0  0  0  0  0  0  0  0
   19.6101  -15.8234   21.6069 C   0  0  1  0  0  0  0  0  0  0  0  0
   19.6440  -14.3089   22.1811 C   0  0  1  0  0  0  0  0  0  0  0  0
   20.5862  -13.3602   21.3895 C   0  0  0  0  0  0  0  0  0  0  0  0
   15.9778  -10.3843   25.0745 C   0  0  1  0  0  0  0  0  0  0  0  0
   15.1404  -11.6372   25.6468 C   0  0  0  0  0  0  0  0  0  0  0  0
   15.4930  -12.9601   24.8422 C   0  0  2  0  0  0  0  0  0  0  0  0
   20.9910  -16.3153   21.6576 F   0  0  0  0  0  0  0  0  0  0  0  0
   16.1240  -16.9347   23.1749 N   0  0  0  0  0  0  0  0  0  0  0  0
   21.9538  -13.7297   21.4249 N   0  0  0  0  0  0  0  0  0  0  0  0
   15.5766   -9.1878   25.8800 N   0  0  0  0  0  0  0  0  0  0  0  0
   14.7528  -14.1064   25.3614 N   0  0  0  0  0  0  0  0  0  0  0  0
   17.2129  -14.4522   24.2775 O   0  0  0  0  0  0  0  0  0  0  0  0
   19.3374  -12.3413   24.5906 O   0  0  0  0  0  0  0  0  0  0  0  0
   18.2822   -9.6450   24.8005 O   0  0  0  0  0  0  0  0  0  0  0  0
   18.6074  -17.8237   22.0600 O   0  0  0  0  0  0  0  0  0  0  0  0
   18.1591  -13.7860   22.1664 O   0  0  0  0  0  0  0  0  0  0  0  0
  1  5  1  0  0  0  0
  1 18  1  1  0  0  0
  2 18  1  6  0  0  0
  2  3  1  0  0  0  0
  2 12  1  0  0  0  0
  3 19  1  1  0  0  0
  3  4  1  0  0  0  0
  4 20  1  6  0  0  0
  4 10  1  0  0  0  0
  5  6  1  0  0  0  0
  5 14  1  1  0  0  0
  6 21  1  6  0  0  0
  7 13  1  1  0  0  0
  7  6  1  0  0  0  0
  8  9  1  6  0  0  0
  8  7  1  0  0  0  0
 10 16  1  1  0  0  0
 11 10  1  0  0  0  0
 12 17  1  1  0  0  0
 12 11  1  0  0  0  0
 15  9  1  0  0  0  0
 22  8  1  0  0  0  0
 22  1  1  0  0  0  0
M  END
>  <CHROM.1>
-170.37207178,-53.52516384,-62.78353334,17.92571746,-13.68940108,23.54152127
1.02754564,-0.45256096,-2.80354253

>  <Name>
lig.pdb

>  <RI>
0

>  <Rbt.Current_Directory>
/home/itssahil/PROJECTS/Mol_Feturizer/New_Systems/rnas/5bxk

>  <Rbt.Executable>
rbdock ($Id: //depot/dev/client3/rdock/2013.1/src/exe/rbdock.cxx#4 $)

>  <Rbt.Library>
libRbt.so (2013.1, Build901 2013/11/27)

>  <Rbt.Parameter_File>
/export/apps/rDock/src/rDock_2013.1_src/data/scripts/dock_solv.prm

>  <Rbt.Receptor>
prm/pocket_docking_8.prm

>  <SCORE>
-8.52479

>  <SCORE.INTER>
-5.82094

>  <SCORE.INTER.CONST>
1

>  <SCORE.INTER.POLAR>
0

>  <SCORE.INTER.ROT>
3

>  <SCORE.INTER.SOLV>
12.5174

>  <SCORE.INTER.VDW>
-13.6531

>  <SCORE.INTER.norm>
-0.264588

>  <SCORE.INTRA>
-2.70385

>  <SCORE.INTRA.DIHEDRAL>
-6.38159

>  <SCORE.INTRA.DIHEDRAL.0>
7.18044

>  <SCORE.INTRA.POLAR>
0

>  <SCORE.INTRA.POLAR.0>
0

>  <SCORE.INTRA.REPUL>
0

>  <SCORE.INTRA.REPUL.0>
0

>  <SCORE.INTRA.SOLV>
0.966883

>  <SCORE.INTRA.SOLV.lig_0>
-72.0615

>  <SCORE.INTRA.VDW>
0.0035077

>  <SCORE.INTRA.VDW.0>
-1.54792

>  <SCORE.INTRA.norm>
-0.122902

>  <SCORE.RESTR>
0

>  <SCORE.RESTR.CAVITY>
0

>  <SCORE.RESTR.norm>
0

>  <SCORE.SYSTEM>
0

>  <SCORE.SYSTEM.CONST>
0

>  <SCORE.SYSTEM.DIHEDRAL>
0

>  <SCORE.SYSTEM.SOLV>
0

>  <SCORE.SYSTEM.norm>
0

>  <SCORE.heavy>
22

>  <SCORE.norm>
-0.38749

>  <RMSD>
7.016

$$$$
lig.pdb
 OpenBabel11021811523D
libRbt.so/2013.1/901 2013/11/27
 22 23  0  0  0  0  0  0  0  0999 V2000
   17.2776  -14.5401   22.9293 C   0  0  1  0  0  0  0  0  0  0  0  0
   16.3017  -13.2277   24.8197 C   0  0  1  0  0  0  0  0  0  0  0  0
   16.4756  -11.7365   24.1600 C   0  0  1  0  0  0  0  0  0  0  0  0
   16.4258  -10.6657   25.3626 C   0  0  2  0  0  0  0  0  0  0  0  0
   17.0559  -15.7675   21.9351 C   0  0  1  0  0  0  0  0  0  0  0  0
   17.1602  -17.1366   22.7136 C   0  0  2  0  0  0  0  0  0  0  0  0
   18.6389  -17.2558   23.3315 C   0  0  1  0  0  0  0  0  0  0  0  0
   18.8920  -16.0698   24.4058 C   0  0  1  0  0  0  0  0  0  0  0  0
   20.2983  -16.1124   25.0654 C   0  0  0  0  0  0  0  0  0  0  0  0
   14.9732  -10.7670   26.0420 C   0  0  1  0  0  0  0  0  0  0  0  0
   14.8330  -12.2473   26.6645 C   0  0  0  0  0  0  0  0  0  0  0  0
   14.9276  -13.3460   25.5217 C   0  0  2  0  0  0  0  0  0  0  0  0
   18.8253  -18.5169   24.0569 F   0  0  0  0  0  0  0  0  0  0  0  0
   15.6757  -15.5420   21.2995 N   0  0  0  0  0  0  0  0  0  0  0  0
   20.5396  -15.0729   25.9978 N   0  0  0  0  0  0  0  0  0  0  0  0
   14.8627   -9.8029   27.1821 N   0  0  0  0  0  0  0  0  0  0  0  0
   14.8182  -14.6928   26.0743 N   0  0  0  0  0  0  0  0  0  0  0  0
   16.3022  -14.2507   23.8498 O   0  0  0  0  0  0  0  0  0  0  0  0
   17.8184  -11.6720   23.5050 O   0  0  0  0  0  0  0  0  0  0  0  0
   16.5705   -9.4002   24.8123 O   0  0  0  0  0  0  0  0  0  0  0  0
   16.9953  -18.0030   21.9342 O   0  0  0  0  0  0  0  0  0  0  0  0
   18.6561  -14.7119   23.6449 O   0  0  0  0  0  0  0  0  0  0  0  0
  1  5  1  0  0  0  0
  1 18  1  1  0  0  0
  2 18  1  6  0  0  0
  2  3  1  0  0  0  0
  2 12  1  0  0  0  0
  3 19  1  1  0  0  0
  3  4  1  0  0  0  0
  4 20  1  6  0  0  0
  4 10  1  0  0  0  0
  5  6  1  0  0  0  0
  5 14  1  1  0  0  0
  6 21  1  6  0  0  0
  7 13  1  1  0  0  0
  7  6  1  0  0  0  0
  8  9  1  6  0  0  0
  8  7  1  0  0  0  0
 10 16  1  1  0  0  0
 11 10  1  0  0  0  0
 12 17  1  1  0  0  0
 12 11  1  0  0  0  0
 15  9  1  0  0  0  0
 22  8  1  0  0  0  0
 22  1  1  0  0  0  0
M  END
>  <CHROM.1>
179.40690624,57.71531663,179.38767076,17.05807633,-14.17134695,24.30971039
1.15348449,0.44454994,-2.58189621

>  <Name>
lig.pdb

>  <RI>
0

>  <Rbt.Current_Directory>
/home/itssahil/PROJECTS/Mol_Feturizer/New_Systems/rnas/5bxk

>  <Rbt.Executable>
rbdock ($Id: //depot/dev/client3/rdock/2013.1/src/exe/rbdock.cxx#4 $)

>  <Rbt.Library>
libRbt.so (2013.1, Build901 2013/11/27)

>  <Rbt.Parameter_File>
/export/apps/rDock/src/rDock_2013.1_src/data/scripts/dock_solv.prm

>  <Rbt.Receptor>
prm/pocket_docking_7.prm

>  <SCORE>
-9.01157

>  <SCORE.INTER>
-4.6944

>  <SCORE.INTER.CONST>
1

>  <SCORE.INTER.POLAR>
0

>  <SCORE.INTER.ROT>
3

>  <SCORE.INTER.SOLV>
15.216

>  <SCORE.INTER.VDW>
-13.8016

>  <SCORE.INTER.norm>
-0.213382

>  <SCORE.INTRA>
-4.31717

>  <SCORE.INTRA.DIHEDRAL>
-7.01639

>  <SCORE.INTRA.DIHEDRAL.0>
7.18044

>  <SCORE.INTRA.POLAR>
0

>  <SCORE.INTRA.POLAR.0>
0

>  <SCORE.INTRA.REPUL>
0

>  <SCORE.INTRA.REPUL.0>
0

>  <SCORE.INTRA.SOLV>
-1.82121

>  <SCORE.INTRA.SOLV.lig_0>
-72.0615

>  <SCORE.INTRA.VDW>
0.101633

>  <SCORE.INTRA.VDW.0>
-1.54792

>  <SCORE.INTRA.norm>
-0.196235

>  <SCORE.RESTR>
0

>  <SCORE.RESTR.CAVITY>
0

>  <SCORE.RESTR.norm>
0

>  <SCORE.SYSTEM>
0

>  <SCORE.SYSTEM.CONST>
0

>  <SCORE.SYSTEM.DIHEDRAL>
0

>  <SCORE.SYSTEM.SOLV>
0

>  <SCORE.SYSTEM.norm>
0

>  <SCORE.heavy>
22

>  <SCORE.norm>
-0.409617

>  <RMSD>
7.050

$$$$
lig.pdb
 OpenBabel11021811523D
libRbt.so/2013.1/901 2013/11/27
 22 23  0  0  0  0  0  0  0  0999 V2000
   15.9722  -15.1853   24.3660 C   0  0  1  0  0  0  0  0  0  0  0  0
   16.0447  -12.6937   24.5541 C   0  0  1  0  0  0  0  0  0  0  0  0
   15.4593  -12.5516   26.0793 C   0  0  1  0  0  0  0  0  0  0  0  0
   14.8904  -11.0533   26.2424 C   0  0  2  0  0  0  0  0  0  0  0  0
   16.7438  -16.4731   23.8273 C   0  0  1  0  0  0  0  0  0  0  0  0
   16.8582  -16.4321   22.2536 C   0  0  2  0  0  0  0  0  0  0  0  0
   15.3739  -16.4458   21.6379 C   0  0  1  0  0  0  0  0  0  0  0  0
   14.5668  -15.1183   22.0974 C   0  0  1  0  0  0  0  0  0  0  0  0
   13.1193  -15.0406   21.5376 C   0  0  0  0  0  0  0  0  0  0  0  0
   16.1272  -10.0431   26.0644 C   0  0  1  0  0  0  0  0  0  0  0  0
   16.6847  -10.2215   24.5625 C   0  0  0  0  0  0  0  0  0  0  0  0
   17.2120  -11.7019   24.3337 C   0  0  2  0  0  0  0  0  0  0  0  0
   15.3930  -16.4306   20.1713 F   0  0  0  0  0  0  0  0  0  0  0  0
   18.1102  -16.4614   24.5290 N   0  0  0  0  0  0  0  0  0  0  0  0
   12.2841  -16.1190   21.9219 N   0  0  0  0  0  0  0  0  0  0  0  0
   15.6643   -8.6250   26.1916 N   0  0  0  0  0  0  0  0  0  0  0  0
   17.7051  -11.8816   22.9715 N   0  0  0  0  0  0  0  0  0  0  0  0
   16.5982  -13.9659   24.3044 O   0  0  0  0  0  0  0  0  0  0  0  0
   14.3316  -13.5212   26.2363 O   0  0  0  0  0  0  0  0  0  0  0  0
   14.3945  -10.9240   27.5319 O   0  0  0  0  0  0  0  0  0  0  0  0
   17.4278  -17.4039   21.9124 O   0  0  0  0  0  0  0  0  0  0  0  0
   14.5745  -15.1061   23.6716 O   0  0  0  0  0  0  0  0  0  0  0  0
  1  5  1  0  0  0  0
  1 18  1  6  0  0  0
  2 18  1  1  0  0  0
  2  3  1  0  0  0  0
  2 12  1  0  0  0  0
  3 19  1  6  0  0  0
  3  4  1  0  0  0  0
  4 20  1  1  0  0  0
  4 10  1  0  0  0  0
  5  6  1  0  0  0  0
  5 14  1  1  0  0  0
  6 21  1  6  0  0  0
  7 13  1  6  0  0  0
  7  6  1  0  0  0  0
  8  9  1  1  0  0  0
  8  7  1  0  0  0  0
 10 16  1  6  0  0  0
 11 10  1  0  0  0  0
 12 17  1  6  0  0  0
 12 11  1  0  0  0  0
 15  9  1  0  0  0  0
 22  8  1  0  0  0  0
 22  1  1  0  0  0  0
M  END
>  <CHROM.1>
170.82467280,60.09050971,59.77602961,15.68653454,-13.84594597,23.91275593
-1.58871536,-0.07173604,0.61790055

>  <Name>
lig.pdb

>  <RI>
0

>  <Rbt.Current_Directory>
/home/itssahil/PROJECTS/Mol_Feturizer/New_Systems/rnas/5bxk

>  <Rbt.Executable>
rbdock ($Id: //depot/dev/client3/rdock/2013.1/src/exe/rbdock.cxx#4 $)

>  <Rbt.Library>
libRbt.so (2013.1, Build901 2013/11/27)

>  <Rbt.Parameter_File>
/export/apps/rDock/src/rDock_2013.1_src/data/scripts/dock_solv.prm

>  <Rbt.Receptor>
prm/pocket_docking_7.prm

>  <SCORE>
-10.2286

>  <SCORE.INTER>
-6.50041

>  <SCORE.INTER.CONST>
1

>  <SCORE.INTER.POLAR>
0

>  <SCORE.INTER.ROT>
3

>  <SCORE.INTER.SOLV>
15.8945

>  <SCORE.INTER.VDW>
-15.2318

>  <SCORE.INTER.norm>
-0.295473

>  <SCORE.INTRA>
-3.72822

>  <SCORE.INTRA.DIHEDRAL>
-6.65254

>  <SCORE.INTRA.DIHEDRAL.0>
7.18044

>  <SCORE.INTRA.POLAR>
0

>  <SCORE.INTRA.POLAR.0>
0

>  <SCORE.INTRA.REPUL>
0

>  <SCORE.INTRA.REPUL.0>
0

>  <SCORE.INTRA.SOLV>
-0.75348

>  <SCORE.INTRA.SOLV.lig_0>
-72.0615

>  <SCORE.INTRA.VDW>
-0.0252076

>  <SCORE.INTRA.VDW.0>
-1.54792

>  <SCORE.INTRA.norm>
-0.169464

>  <SCORE.RESTR>
0

>  <SCORE.RESTR.CAVITY>
0

>  <SCORE.RESTR.norm>
0

>  <SCORE.SYSTEM>
0

>  <SCORE.SYSTEM.CONST>
0

>  <SCORE.SYSTEM.DIHEDRAL>
0

>  <SCORE.SYSTEM.SOLV>
0

>  <SCORE.SYSTEM.norm>
0

>  <SCORE.heavy>
22

>  <SCORE.norm>
-0.464938

>  <RMSD>
7.078

$$$$
lig.pdb
 OpenBabel11021811523D
libRbt.so/2013.1/901 2013/11/27
 22 23  0  0  0  0  0  0  0  0999 V2000
   19.5843  -13.8324   23.6772 C   0  0  1  0  0  0  0  0  0  0  0  0
   17.4901  -13.0103   24.7666 C   0  0  1  0  0  0  0  0  0  0  0  0
   17.6399  -11.3954   24.5239 C   0  0  1  0  0  0  0  0  0  0  0  0
   16.7359  -10.6530   25.6314 C   0  0  2  0  0  0  0  0  0  0  0  0
   20.1827  -14.6970   22.4778 C   0  0  1  0  0  0  0  0  0  0  0  0
   19.9793  -16.2382   22.7508 C   0  0  2  0  0  0  0  0  0  0  0  0
   20.7776  -16.6243   24.0909 C   0  0  1  0  0  0  0  0  0  0  0  0
   20.1608  -15.8248   25.3579 C   0  0  1  0  0  0  0  0  0  0  0  0
   20.8666  -16.1457   26.7044 C   0  0  0  0  0  0  0  0  0  0  0  0
   15.2077  -11.0775   25.3737 C   0  0  1  0  0  0  0  0  0  0  0  0
   15.1025  -12.6692   25.6059 C   0  0  0  0  0  0  0  0  0  0  0  0
   16.0189  -13.4476   24.5684 C   0  0  2  0  0  0  0  0  0  0  0  0
   20.6557  -18.0520   24.4045 F   0  0  0  0  0  0  0  0  0  0  0  0
   19.4577  -14.2103   21.2140 N   0  0  0  0  0  0  0  0  0  0  0  0
   20.7949  -17.5064   27.0937 N   0  0  0  0  0  0  0  0  0  0  0  0
   14.3098  -10.4301   26.3818 N   0  0  0  0  0  0  0  0  0  0  0  0
   15.9453  -14.8904   24.7785 N   0  0  0  0  0  0  0  0  0  0  0  0
   18.2223  -13.7675   23.8296 O   0  0  0  0  0  0  0  0  0  0  0  0
   19.0731  -11.0248   24.7360 O   0  0  0  0  0  0  0  0  0  0  0  0
   16.8556   -9.2851   25.4317 O   0  0  0  0  0  0  0  0  0  0  0  0
   20.4422  -16.8252   21.8416 O   0  0  0  0  0  0  0  0  0  0  0  0
   20.2521  -14.2914   25.0133 O   0  0  0  0  0  0  0  0  0  0  0  0
  1  5  1  0  0  0  0
  1 18  1  1  0  0  0
  2 18  1  6  0  0  0
  2  3  1  0  0  0  0
  2 12  1  0  0  0  0
  3 19  1  1  0  0  0
  3  4  1  0  0  0  0
  4 20  1  6  0  0  0
  4 10  1  0  0  0  0
  5  6  1  0  0  0  0
  5 14  1  6  0  0  0
  6 21  1  6  0  0  0
  7 13  1  1  0  0  0
  7  6  1  0  0  0  0
  8  9  1  1  0  0  0
  8  7  1  0  0  0  0
 10 16  1  1  0  0  0
 11 10  1  0  0  0  0
 12 17  1  1  0  0  0
 12 11  1  0  0  0  0
 15  9  1  0  0  0  0
 22  8  1  0  0  0  0
 22  1  1  0  0  0  0
M  END
>  <CHROM.1>
-176.22352564,66.01645380,-60.82486957,18.49739328,-13.95015596,24.54988026
-0.22450964,0.88833785,-1.06451995

>  <Name>
lig.pdb

>  <RI>
0

>  <Rbt.Current_Directory>
/home/itssahil/PROJECTS/Mol_Feturizer/New_Systems/rnas/5bxk

>  <Rbt.Executable>
rbdock ($Id: //depot/dev/client3/rdock/2013.1/src/exe/rbdock.cxx#4 $)

>  <Rbt.Library>
libRbt.so (2013.1, Build901 2013/11/27)

>  <Rbt.Parameter_File>
/export/apps/rDock/src/rDock_2013.1_src/data/scripts/dock_solv.prm

>  <Rbt.Receptor>
prm/pocket_docking_7.prm

>  <SCORE>
-9.05717

>  <SCORE.INTER>
-5.36889

>  <SCORE.INTER.CONST>
1

>  <SCORE.INTER.POLAR>
0

>  <SCORE.INTER.ROT>
3

>  <SCORE.INTER.SOLV>
13.9987

>  <SCORE.INTER.VDW>
-13.8455

>  <SCORE.INTER.norm>
-0.24404

>  <SCORE.INTRA>
-3.68828

>  <SCORE.INTRA.DIHEDRAL>
-6.79804

>  <SCORE.INTRA.DIHEDRAL.0>
7.18044

>  <SCORE.INTRA.POLAR>
0

>  <SCORE.INTRA.POLAR.0>
0

>  <SCORE.INTRA.REPUL>
0

>  <SCORE.INTRA.REPUL.0>
0

>  <SCORE.INTRA.SOLV>
-0.77819

>  <SCORE.INTRA.SOLV.lig_0>
-72.0615

>  <SCORE.INTRA.VDW>
0.0998402

>  <SCORE.INTRA.VDW.0>
-1.54792

>  <SCORE.INTRA.norm>
-0.167649

>  <SCORE.RESTR>
0

>  <SCORE.RESTR.CAVITY>
0

>  <SCORE.RESTR.norm>
0

>  <SCORE.SYSTEM>
0

>  <SCORE.SYSTEM.CONST>
0

>  <SCORE.SYSTEM.DIHEDRAL>
0

>  <SCORE.SYSTEM.SOLV>
0

>  <SCORE.SYSTEM.norm>
0

>  <SCORE.heavy>
22

>  <SCORE.norm>
-0.411689

>  <RMSD>
7.234

$$$$
lig.pdb
 OpenBabel11021811523D
libRbt.so/2013.1/901 2013/11/27
 22 23  0  0  0  0  0  0  0  0999 V2000
   15.2897  -15.8104   24.9476 C   0  0  1  0  0  0  0  0  0  0  0  0
   15.8842  -13.4002   25.2409 C   0  0  1  0  0  0  0  0  0  0  0  0
   16.6630  -13.0871   23.8321 C   0  0  1  0  0  0  0  0  0  0  0  0
   17.6214  -11.8162   24.0802 C   0  0  2  0  0  0  0  0  0  0  0  0
   14.0966  -16.8418   24.7097 C   0  0  1  0  0  0  0  0  0  0  0  0
   13.2716  -17.0505   26.0391 C   0  0  2  0  0  0  0  0  0  0  0  0
   14.2525  -17.6699   27.1511 C   0  0  1  0  0  0  0  0  0  0  0  0
   15.4476  -16.6279   27.4840 C   0  0  1  0  0  0  0  0  0  0  0  0
   16.4428  -17.1403   28.5616 C   0  0  0  0  0  0  0  0  0  0  0  0
   16.6820  -10.5643   24.4440 C   0  0  1  0  0  0  0  0  0  0  0  0
   15.9231  -10.9139   25.8225 C   0  0  0  0  0  0  0  0  0  0  0  0
   15.0015  -12.1949   25.6444 C   0  0  2  0  0  0  0  0  0  0  0  0
   13.5536  -17.9148   28.4173 F   0  0  0  0  0  0  0  0  0  0  0  0
   13.2566  -16.2481   23.5688 N   0  0  0  0  0  0  0  0  0  0  0  0
   17.1032  -18.3473   28.2223 N   0  0  0  0  0  0  0  0  0  0  0  0
   17.5135   -9.3462   24.7014 N   0  0  0  0  0  0  0  0  0  0  0  0
   14.3205  -12.5322   26.8909 N   0  0  0  0  0  0  0  0  0  0  0  0
   14.9898  -14.4846   25.1340 O   0  0  0  0  0  0  0  0  0  0  0  0
   17.5061  -14.2748   23.4933 O   0  0  0  0  0  0  0  0  0  0  0  0
   18.2831  -11.5432   22.8915 O   0  0  0  0  0  0  0  0  0  0  0  0
   12.4126  -17.8212   25.8080 O   0  0  0  0  0  0  0  0  0  0  0  0
   16.1797  -16.3292   26.1226 O   0  0  0  0  0  0  0  0  0  0  0  0
  1  5  1  0  0  0  0
  1 18  1  1  0  0  0
  2 18  1  6  0  0  0
  2  3  1  0  0  0  0
  2 12  1  0  0  0  0
  3 19  1  1  0  0  0
  3  4  1  0  0  0  0
  4 20  1  6  0  0  0
  4 10  1  0  0  0  0
  5  6  1  0  0  0  0
  5 14  1  6  0  0  0
  6 21  1  6  0  0  0
  7 13  1  1  0  0  0
  7  6  1  0  0  0  0
  8  9  1  1  0  0  0
  8  7  1  0  0  0  0
 10 16  1  1  0  0  0
 11 10  1  0  0  0  0
 12 17  1  1  0  0  0
 12 11  1  0  0  0  0
 15  9  1  0  0  0  0
 22  8  1  0  0  0  0
 22  1  1  0  0  0  0
M  END
>  <CHROM.1>
-173.89888878,68.10934613,59.75756678,15.51454503,-14.69887474,25.62412243
2.05645809,0.67527863,2.41608942

>  <Name>
lig.pdb

>  <RI>
0

>  <Rbt.Current_Directory>
/home/itssahil/PROJECTS/Mol_Feturizer/New_Systems/rnas/5bxk

>  <Rbt.Executable>
rbdock ($Id: //depot/dev/client3/rdock/2013.1/src/exe/rbdock.cxx#4 $)

>  <Rbt.Library>
libRbt.so (2013.1, Build901 2013/11/27)

>  <Rbt.Parameter_File>
/export/apps/rDock/src/rDock_2013.1_src/data/scripts/dock_solv.prm

>  <Rbt.Receptor>
prm/pocket_docking_8.prm

>  <SCORE>
-9.68556

>  <SCORE.INTER>
-6.08022

>  <SCORE.INTER.CONST>
1

>  <SCORE.INTER.POLAR>
0

>  <SCORE.INTER.ROT>
3

>  <SCORE.INTER.SOLV>
24.0239

>  <SCORE.INTER.VDW>
-17.6614

>  <SCORE.INTER.norm>
-0.276374

>  <SCORE.INTRA>
-3.60533

>  <SCORE.INTRA.DIHEDRAL>
-6.54985

>  <SCORE.INTRA.DIHEDRAL.0>
7.18044

>  <SCORE.INTRA.POLAR>
0

>  <SCORE.INTRA.POLAR.0>
0

>  <SCORE.INTRA.REPUL>
0

>  <SCORE.INTRA.REPUL.0>
0

>  <SCORE.INTRA.SOLV>
-0.615631

>  <SCORE.INTRA.SOLV.lig_0>
-72.0615

>  <SCORE.INTRA.VDW>
-0.0225922

>  <SCORE.INTRA.VDW.0>
-1.54792

>  <SCORE.INTRA.norm>
-0.163879

>  <SCORE.RESTR>
0

>  <SCORE.RESTR.CAVITY>
0

>  <SCORE.RESTR.norm>
0

>  <SCORE.SYSTEM>
0

>  <SCORE.SYSTEM.CONST>
0

>  <SCORE.SYSTEM.DIHEDRAL>
0

>  <SCORE.SYSTEM.SOLV>
0

>  <SCORE.SYSTEM.norm>
0

>  <SCORE.heavy>
22

>  <SCORE.norm>
-0.440253

>  <RMSD>
7.332

$$$$
lig.pdb
 OpenBabel11021811523D
libRbt.so/2013.1/901 2013/11/27
 22 23  0  0  0  0  0  0  0  0999 V2000
   18.1189   -3.7205   26.7206 C   0  0  1  0  0  0  0  0  0  0  0  0
   17.1508   -5.9146   26.0155 C   0  0  1  0  0  0  0  0  0  0  0  0
   18.2346   -6.9552   26.6726 C   0  0  1  0  0  0  0  0  0  0  0  0
   18.1363   -8.3387   25.8533 C   0  0  2  0  0  0  0  0  0  0  0  0
   17.9876   -2.5217   27.7644 C   0  0  1  0  0  0  0  0  0  0  0  0
   16.8378   -1.5319   27.3291 C   0  0  2  0  0  0  0  0  0  0  0  0
   17.2217   -0.9082   25.8988 C   0  0  1  0  0  0  0  0  0  0  0  0
   17.2983   -2.0792   24.7817 C   0  0  1  0  0  0  0  0  0  0  0  0
   17.6545   -1.5651   23.3593 C   0  0  0  0  0  0  0  0  0  0  0  0
   16.6560   -8.9257   26.0687 C   0  0  1  0  0  0  0  0  0  0  0  0
   15.6199   -7.8715   25.4255 C   0  0  0  0  0  0  0  0  0  0  0  0
   15.7145   -6.4705   26.1672 C   0  0  2  0  0  0  0  0  0  0  0  0
   16.2085    0.0435   25.4305 F   0  0  0  0  0  0  0  0  0  0  0  0
   17.7262   -3.1840   29.1256 N   0  0  0  0  0  0  0  0  0  0  0  0
   17.6028   -2.5567   22.3482 N   0  0  0  0  0  0  0  0  0  0  0  0
   16.4909  -10.2112   25.3193 N   0  0  0  0  0  0  0  0  0  0  0  0
   14.7921   -5.5012   25.5834 N   0  0  0  0  0  0  0  0  0  0  0  0
   17.1289   -4.6694   26.6759 O   0  0  0  0  0  0  0  0  0  0  0  0
   19.6020   -6.3774   26.4917 O   0  0  0  0  0  0  0  0  0  0  0  0
   19.0495   -9.2261   26.4046 O   0  0  0  0  0  0  0  0  0  0  0  0
   16.7897   -0.6685   28.1276 O   0  0  0  0  0  0  0  0  0  0  0  0
   18.3563   -3.1258   25.2951 O   0  0  0  0  0  0  0  0  0  0  0  0
  1  5  1  0  0  0  0
  1 18  1  6  0  0  0
  2 18  1  1  0  0  0
  2  3  1  0  0  0  0
  2 12  1  0  0  0  0
  3 19  1  6  0  0  0
  3  4  1  0  0  0  0
  4 20  1  1  0  0  0
  4 10  1  0  0  0  0
  5  6  1  0  0  0  0
  5 14  1  1  0  0  0
  6 21  1  1  0  0  0
  7 13  1  6  0  0  0
  7  6  1  0  0  0  0
  8  9  1  6  0  0  0
  8  7  1  0  0  0  0
 10 16  1  6  0  0  0
 11 10  1  0  0  0  0
 12 17  1  6  0  0  0
 12 11  1  0  0  0  0
 15  9  1  0  0  0  0
 22  8  1  0  0  0  0
 22  1  1  0  0  0  0
M  END
>  <CHROM.1>
-167.85274008,66.82541479,-174.39038299,17.29963788,-4.57679771,26.03785784
-1.71876698,1.35386097,-3.00009005

>  <Name>
lig.pdb

>  <RI>
0

>  <Rbt.Current_Directory>
/home/itssahil/PROJECTS/Mol_Feturizer/New_Systems/rnas/5bxk

>  <Rbt.Executable>
rbdock ($Id: //depot/dev/client3/rdock/2013.1/src/exe/rbdock.cxx#4 $)

>  <Rbt.Library>
libRbt.so (2013.1, Build901 2013/11/27)

>  <Rbt.Parameter_File>
/export/apps/rDock/src/rDock_2013.1_src/data/scripts/dock_solv.prm

>  <Rbt.Receptor>
prm/pocket_docking_7.prm

>  <SCORE>
-7.16167

>  <SCORE.INTER>
-3.35927

>  <SCORE.INTER.CONST>
1

>  <SCORE.INTER.POLAR>
0

>  <SCORE.INTER.ROT>
3

>  <SCORE.INTER.SOLV>
10.0307

>  <SCORE.INTER.VDW>
-11.1831

>  <SCORE.INTER.norm>
-0.152694

>  <SCORE.INTRA>
-3.80239

>  <SCORE.INTRA.DIHEDRAL>
-6.02574

>  <SCORE.INTRA.DIHEDRAL.0>
7.18044

>  <SCORE.INTRA.POLAR>
0

>  <SCORE.INTRA.POLAR.0>
0

>  <SCORE.INTRA.REPUL>
0

>  <SCORE.INTRA.REPUL.0>
0

>  <SCORE.INTRA.SOLV>
-1.68731

>  <SCORE.INTRA.SOLV.lig_0>
-72.0615

>  <SCORE.INTRA.VDW>
0.0541301

>  <SCORE.INTRA.VDW.0>
-1.54792

>  <SCORE.INTRA.norm>
-0.172836

>  <SCORE.RESTR>
0

>  <SCORE.RESTR.CAVITY>
0

>  <SCORE.RESTR.norm>
0

>  <SCORE.SYSTEM>
0

>  <SCORE.SYSTEM.CONST>
0

>  <SCORE.SYSTEM.DIHEDRAL>
0

>  <SCORE.SYSTEM.SOLV>
0

>  <SCORE.SYSTEM.norm>
0

>  <SCORE.heavy>
22

>  <SCORE.norm>
-0.32553

>  <RMSD>
7.466

$$$$
lig.pdb
 OpenBabel11021811523D
libRbt.so/2013.1/901 2013/11/27
 22 23  0  0  0  0  0  0  0  0999 V2000
   18.5982   -4.9924   29.7976 C   0  0  1  0  0  0  0  0  0  0  0  0
   17.6488   -6.6791   28.2157 C   0  0  1  0  0  0  0  0  0  0  0  0
   18.8808   -7.7582   28.1328 C   0  0  1  0  0  0  0  0  0  0  0  0
   18.7214   -8.5704   26.7507 C   0  0  2  0  0  0  0  0  0  0  0  0
   18.4400   -4.3047   31.2280 C   0  0  1  0  0  0  0  0  0  0  0  0
   17.2087   -3.3172   31.2345 C   0  0  2  0  0  0  0  0  0  0  0  0
   17.4818   -2.1610   30.1524 C   0  0  1  0  0  0  0  0  0  0  0  0
   17.5800   -2.7992   28.6665 C   0  0  1  0  0  0  0  0  0  0  0  0
   17.8329   -1.7490   27.5496 C   0  0  0  0  0  0  0  0  0  0  0  0
   17.3311   -9.3733   26.8178 C   0  0  1  0  0  0  0  0  0  0  0  0
   16.1476   -8.2830   26.9138 C   0  0  0  0  0  0  0  0  0  0  0  0
   16.2896   -7.4185   28.2383 C   0  0  2  0  0  0  0  0  0  0  0  0
   16.3875   -1.1850   30.1111 F   0  0  0  0  0  0  0  0  0  0  0  0
   18.2882   -5.4600   32.2290 N   0  0  0  0  0  0  0  0  0  0  0  0
   16.7528   -0.8589   27.3271 N   0  0  0  0  0  0  0  0  0  0  0  0
   17.1124  -10.1432   25.5526 N   0  0  0  0  0  0  0  0  0  0  0  0
   15.2324   -6.4158   28.3295 N   0  0  0  0  0  0  0  0  0  0  0  0
   17.6708   -5.9249   29.4065 O   0  0  0  0  0  0  0  0  0  0  0  0
   20.1662   -6.9946   28.1042 O   0  0  0  0  0  0  0  0  0  0  0  0
   19.7597   -9.4877   26.6736 O   0  0  0  0  0  0  0  0  0  0  0  0
   17.1434   -2.8362   32.3068 O   0  0  0  0  0  0  0  0  0  0  0  0
   18.7273   -3.8763   28.7116 O   0  0  0  0  0  0  0  0  0  0  0  0
  1  5  1  0  0  0  0
  1 18  1  6  0  0  0
  2 18  1  1  0  0  0
  2  3  1  0  0  0  0
  2 12  1  0  0  0  0
  3 19  1  6  0  0  0
  3  4  1  0  0  0  0
  4 20  1  1  0  0  0
  4 10  1  0  0  0  0
  5  6  1  0  0  0  0
  5 14  1  1  0  0  0
  6 21  1  1  0  0  0
  7 13  1  6  0  0  0
  7  6  1  0  0  0  0
  8  9  1  6  0  0  0
  8  7  1  0  0  0  0
 10 16  1  6  0  0  0
 11 10  1  0  0  0  0
 12 17  1  6  0  0  0
 12 11  1  0  0  0  0
 15  9  1  0  0  0  0
 22  8  1  0  0  0  0
 22  1  1  0  0  0  0
M  END
>  <CHROM.1>
-177.61875861,67.24675332,-67.70627623,17.70695045,-5.41561248,28.77300975
-1.83102517,1.19421900,-2.44882198

>  <Name>
lig.pdb

>  <RI>
0

>  <Rbt.Current_Directory>
/home/itssahil/PROJECTS/Mol_Feturizer/New_Systems/rnas/5bxk

>  <Rbt.Executable>
rbdock ($Id: //depot/dev/client3/rdock/2013.1/src/exe/rbdock.cxx#4 $)

>  <Rbt.Library>
libRbt.so (2013.1, Build901 2013/11/27)

>  <Rbt.Parameter_File>
/export/apps/rDock/src/rDock_2013.1_src/data/scripts/dock_solv.prm

>  <Rbt.Receptor>
prm/pocket_docking_7.prm

>  <SCORE>
-5.11814

>  <SCORE.INTER>
-1.45117

>  <SCORE.INTER.CONST>
1

>  <SCORE.INTER.POLAR>
0

>  <SCORE.INTER.ROT>
3

>  <SCORE.INTER.SOLV>
10.6746

>  <SCORE.INTER.VDW>
-10.1257

>  <SCORE.INTER.norm>
-0.0659622

>  <SCORE.INTRA>
-3.66697

>  <SCORE.INTRA.DIHEDRAL>
-6.55168

>  <SCORE.INTRA.DIHEDRAL.0>
7.18044

>  <SCORE.INTRA.POLAR>
0

>  <SCORE.INTRA.POLAR.0>
0

>  <SCORE.INTRA.REPUL>
0

>  <SCORE.INTRA.REPUL.0>
0

>  <SCORE.INTRA.SOLV>
-0.858564

>  <SCORE.INTRA.SOLV.lig_0>
-72.0615

>  <SCORE.INTRA.VDW>
0.0381483

>  <SCORE.INTRA.VDW.0>
-1.54792

>  <SCORE.INTRA.norm>
-0.166681

>  <SCORE.RESTR>
0

>  <SCORE.RESTR.CAVITY>
0

>  <SCORE.RESTR.norm>
0

>  <SCORE.SYSTEM>
0

>  <SCORE.SYSTEM.CONST>
0

>  <SCORE.SYSTEM.DIHEDRAL>
0

>  <SCORE.SYSTEM.SOLV>
0

>  <SCORE.SYSTEM.norm>
0

>  <SCORE.heavy>
22

>  <SCORE.norm>
-0.232643

>  <RMSD>
7.488

$$$$
lig.pdb
 OpenBabel11021811523D
libRbt.so/2013.1/901 2013/11/27
 22 23  0  0  0  0  0  0  0  0999 V2000
   16.4427  -12.1214   24.2056 C   0  0  1  0  0  0  0  0  0  0  0  0
   15.1311  -14.1219   24.9308 C   0  0  1  0  0  0  0  0  0  0  0  0
   15.2338  -15.3777   23.8812 C   0  0  1  0  0  0  0  0  0  0  0  0
   13.8928  -16.2555   24.0431 C   0  0  2  0  0  0  0  0  0  0  0  0
   17.8616  -11.3952   24.2639 C   0  0  1  0  0  0  0  0  0  0  0  0
   18.1081  -10.7753   25.6944 C   0  0  2  0  0  0  0  0  0  0  0  0
   16.9717   -9.6731   25.9708 C   0  0  1  0  0  0  0  0  0  0  0  0
   15.5103  -10.3720   25.9936 C   0  0  1  0  0  0  0  0  0  0  0  0
   14.3461   -9.3797   26.2664 C   0  0  0  0  0  0  0  0  0  0  0  0
   13.8690  -16.8324   25.5426 C   0  0  1  0  0  0  0  0  0  0  0  0
   13.7834  -15.5721   26.5440 C   0  0  0  0  0  0  0  0  0  0  0  0
   15.0625  -14.6442   26.3859 C   0  0  2  0  0  0  0  0  0  0  0  0
   17.1430   -9.0313   27.2786 F   0  0  0  0  0  0  0  0  0  0  0  0
   18.8932  -12.4701   23.8896 N   0  0  0  0  0  0  0  0  0  0  0  0
   14.3851   -8.7681   27.5442 N   0  0  0  0  0  0  0  0  0  0  0  0
   12.6357  -17.6511   25.7666 N   0  0  0  0  0  0  0  0  0  0  0  0
   14.9899  -13.4896   27.2763 N   0  0  0  0  0  0  0  0  0  0  0  0
   16.2719  -13.2946   24.8963 O   0  0  0  0  0  0  0  0  0  0  0  0
   15.2876  -14.8209   22.4943 O   0  0  0  0  0  0  0  0  0  0  0  0
   13.9725  -17.3221   23.1591 O   0  0  0  0  0  0  0  0  0  0  0  0
   19.1612  -10.2499   25.6783 O   0  0  0  0  0  0  0  0  0  0  0  0
   15.3335  -11.0965   24.6071 O   0  0  0  0  0  0  0  0  0  0  0  0
  1  5  1  0  0  0  0
  1 18  1  1  0  0  0
  2 18  1  1  0  0  0
  2  3  1  0  0  0  0
  2 12  1  0  0  0  0
  3 19  1  6  0  0  0
  3  4  1  0  0  0  0
  4 20  1  6  0  0  0
  4 10  1  0  0  0  0
  5  6  1  0  0  0  0
  5 14  1  1  0  0  0
  6 21  1  6  0  0  0
  7 13  1  1  0  0  0
  7  6  1  0  0  0  0
  8  9  1  6  0  0  0
  8  7  1  0  0  0  0
 10 16  1  6  0  0  0
 11 10  1  0  0  0  0
 12 17  1  1  0  0  0
 12 11  1  0  0  0  0
 15  9  1  0  0  0  0
 22  8  1  0  0  0  0
 22  1  1  0  0  0  0
M  END
>  <CHROM.1>
-176.89107790,97.03770432,-64.04031635,15.67929144,-12.88563373,25.28936370
-1.07247981,-0.60450744,-2.61960781

>  <Name>
lig.pdb

>  <RI>
0

>  <Rbt.Current_Directory>
/home/itssahil/PROJECTS/Mol_Feturizer/New_Systems/rnas/5bxk

>  <Rbt.Executable>
rbdock ($Id: //depot/dev/client3/rdock/2013.1/src/exe/rbdock.cxx#4 $)

>  <Rbt.Library>
libRbt.so (2013.1, Build901 2013/11/27)

>  <Rbt.Parameter_File>
/export/apps/rDock/src/rDock_2013.1_src/data/scripts/dock_solv.prm

>  <Rbt.Receptor>
prm/pocket_docking_7.prm

>  <SCORE>
-6.93076

>  <SCORE.INTER>
-5.94715

>  <SCORE.INTER.CONST>
1

>  <SCORE.INTER.POLAR>
0

>  <SCORE.INTER.ROT>
3

>  <SCORE.INTER.SOLV>
19.3083

>  <SCORE.INTER.VDW>
-16.0009

>  <SCORE.INTER.norm>
-0.270325

>  <SCORE.INTRA>
-0.983619

>  <SCORE.INTRA.DIHEDRAL>
-2.04452

>  <SCORE.INTRA.DIHEDRAL.0>
7.18044

>  <SCORE.INTRA.POLAR>
0

>  <SCORE.INTRA.POLAR.0>
0

>  <SCORE.INTRA.REPUL>
0

>  <SCORE.INTRA.REPUL.0>
0

>  <SCORE.INTRA.SOLV>
0.637943

>  <SCORE.INTRA.SOLV.lig_0>
-72.0615

>  <SCORE.INTRA.VDW>
-0.280331

>  <SCORE.INTRA.VDW.0>
-1.54792

>  <SCORE.INTRA.norm>
-0.0447099

>  <SCORE.RESTR>
0

>  <SCORE.RESTR.CAVITY>
0

>  <SCORE.RESTR.norm>
0

>  <SCORE.SYSTEM>
0

>  <SCORE.SYSTEM.CONST>
0

>  <SCORE.SYSTEM.DIHEDRAL>
0

>  <SCORE.SYSTEM.SOLV>
0

>  <SCORE.SYSTEM.norm>
0

>  <SCORE.heavy>
22

>  <SCORE.norm>
-0.315035

>  <RMSD>
8.354

$$$$
lig.pdb
 OpenBabel11021811523D
libRbt.so/2013.1/901 2013/11/27
 22 23  0  0  0  0  0  0  0  0999 V2000
   16.4037  -13.0121   24.1122 C   0  0  1  0  0  0  0  0  0  0  0  0
   15.9305  -15.2043   25.2163 C   0  0  1  0  0  0  0  0  0  0  0  0
   14.5517  -14.7672   25.9890 C   0  0  1  0  0  0  0  0  0  0  0  0
   13.7129  -16.1112   26.2810 C   0  0  2  0  0  0  0  0  0  0  0  0
   17.5267  -11.9274   23.7861 C   0  0  1  0  0  0  0  0  0  0  0  0
   17.8884  -11.0986   25.0798 C   0  0  2  0  0  0  0  0  0  0  0  0
   16.5695  -10.3205   25.5672 C   0  0  1  0  0  0  0  0  0  0  0  0
   15.4166  -11.3810   25.9807 C   0  0  1  0  0  0  0  0  0  0  0  0
   14.1031  -10.7157   26.4772 C   0  0  0  0  0  0  0  0  0  0  0  0
   13.3298  -16.7615   24.8624 C   0  0  1  0  0  0  0  0  0  0  0  0
   14.7069  -17.1634   24.1272 C   0  0  0  0  0  0  0  0  0  0  0  0
   15.5963  -15.8747   23.8622 C   0  0  2  0  0  0  0  0  0  0  0  0
   16.8279   -9.5057   26.7592 F   0  0  0  0  0  0  0  0  0  0  0  0
   18.7186  -12.7195   23.2279 N   0  0  0  0  0  0  0  0  0  0  0  0
   14.2589   -9.8933   27.6206 N   0  0  0  0  0  0  0  0  0  0  0  0
   12.5566  -18.0280   25.0613 N   0  0  0  0  0  0  0  0  0  0  0  0
   16.8545  -16.2270   23.2109 N   0  0  0  0  0  0  0  0  0  0  0  0
   16.7370  -14.0971   24.8831 O   0  0  0  0  0  0  0  0  0  0  0  0
   14.9289  -14.1354   27.2908 O   0  0  0  0  0  0  0  0  0  0  0  0
   12.5428  -15.7498   26.9334 O   0  0  0  0  0  0  0  0  0  0  0  0
   18.7128  -10.3136   24.7810 O   0  0  0  0  0  0  0  0  0  0  0  0
   15.1600  -12.2856   24.7181 O   0  0  0  0  0  0  0  0  0  0  0  0
  1  5  1  0  0  0  0
  1 18  1  1  0  0  0
  2 18  1  6  0  0  0
  2  3  1  0  0  0  0
  2 12  1  0  0  0  0
  3 19  1  1  0  0  0
  3  4  1  0  0  0  0
  4 20  1  6  0  0  0
  4 10  1  0  0  0  0
  5  6  1  0  0  0  0
  5 14  1  1  0  0  0
  6 21  1  6  0  0  0
  7 13  1  1  0  0  0
  7  6  1  0  0  0  0
  8  9  1  6  0  0  0
  8  7  1  0  0  0  0
 10 16  1  1  0  0  0
 11 10  1  0  0  0  0
 12 17  1  1  0  0  0
 12 11  1  0  0  0  0
 15  9  1  0  0  0  0
 22  8  1  0  0  0  0
 22  1  1  0  0  0  0
M  END
>  <CHROM.1>
-175.60834843,-58.01726091,-59.84599464,15.60959975,-13.43905899,25.30924994
-1.00383843,-0.61535615,-2.72491746

>  <Name>
lig.pdb

>  <RI>
0

>  <Rbt.Current_Directory>
/home/itssahil/PROJECTS/Mol_Feturizer/New_Systems/rnas/5bxk

>  <Rbt.Executable>
rbdock ($Id: //depot/dev/client3/rdock/2013.1/src/exe/rbdock.cxx#4 $)

>  <Rbt.Library>
libRbt.so (2013.1, Build901 2013/11/27)

>  <Rbt.Parameter_File>
/export/apps/rDock/src/rDock_2013.1_src/data/scripts/dock_solv.prm

>  <Rbt.Receptor>
prm/pocket_docking_7.prm

>  <SCORE>
-10.9528

>  <SCORE.INTER>
-7.94094

>  <SCORE.INTER.CONST>
1

>  <SCORE.INTER.POLAR>
0

>  <SCORE.INTER.ROT>
3

>  <SCORE.INTER.SOLV>
16.4059

>  <SCORE.INTER.VDW>
-16.3626

>  <SCORE.INTER.norm>
-0.360952

>  <SCORE.INTRA>
-3.01186

>  <SCORE.INTRA.DIHEDRAL>
-6.9343

>  <SCORE.INTRA.DIHEDRAL.0>
7.18044

>  <SCORE.INTRA.POLAR>
0

>  <SCORE.INTRA.POLAR.0>
0

>  <SCORE.INTRA.REPUL>
0

>  <SCORE.INTRA.REPUL.0>
0

>  <SCORE.INTRA.SOLV>
0.76847

>  <SCORE.INTRA.SOLV.lig_0>
-72.0615

>  <SCORE.INTRA.VDW>
0.0710503

>  <SCORE.INTRA.VDW.0>
-1.54792

>  <SCORE.INTRA.norm>
-0.136903

>  <SCORE.RESTR>
0

>  <SCORE.RESTR.CAVITY>
0

>  <SCORE.RESTR.norm>
0

>  <SCORE.SYSTEM>
0

>  <SCORE.SYSTEM.CONST>
0

>  <SCORE.SYSTEM.DIHEDRAL>
0

>  <SCORE.SYSTEM.SOLV>
0

>  <SCORE.SYSTEM.norm>
0

>  <SCORE.heavy>
22

>  <SCORE.norm>
-0.497855

>  <RMSD>
8.461

$$$$
lig.pdb
 OpenBabel11021811523D
libRbt.so/2013.1/901 2013/11/27
 22 23  0  0  0  0  0  0  0  0999 V2000
   15.9539  -13.0664   24.3211 C   0  0  1  0  0  0  0  0  0  0  0  0
   14.6016  -15.0052   25.1342 C   0  0  1  0  0  0  0  0  0  0  0  0
   14.2799  -15.7530   23.7107 C   0  0  1  0  0  0  0  0  0  0  0  0
   12.9673  -16.6617   23.9264 C   0  0  2  0  0  0  0  0  0  0  0  0
   17.4180  -12.4375   24.2517 C   0  0  1  0  0  0  0  0  0  0  0  0
   17.8051  -11.7817   25.6343 C   0  0  2  0  0  0  0  0  0  0  0  0
   16.7660  -10.5945   25.9396 C   0  0  1  0  0  0  0  0  0  0  0  0
   15.2670  -11.1901   26.0915 C   0  0  1  0  0  0  0  0  0  0  0  0
   14.1927  -10.1106   26.3999 C   0  0  0  0  0  0  0  0  0  0  0  0
   13.3240  -17.7748   25.0291 C   0  0  1  0  0  0  0  0  0  0  0  0
   13.6485  -17.0035   26.4068 C   0  0  0  0  0  0  0  0  0  0  0  0
   14.9078  -16.0519   26.2321 C   0  0  2  0  0  0  0  0  0  0  0  0
   17.0709   -9.9164   27.2040 F   0  0  0  0  0  0  0  0  0  0  0  0
   18.3477  -13.5941   23.8547 N   0  0  0  0  0  0  0  0  0  0  0  0
   14.4049   -9.4017   27.6084 N   0  0  0  0  0  0  0  0  0  0  0  0
   12.1375  -18.6500   25.2889 N   0  0  0  0  0  0  0  0  0  0  0  0
   15.2028  -15.3347   27.4690 N   0  0  0  0  0  0  0  0  0  0  0  0
   15.7556  -14.1979   25.0714 O   0  0  0  0  0  0  0  0  0  0  0  0
   13.9826  -14.7013   22.6901 O   0  0  0  0  0  0  0  0  0  0  0  0
   12.6892  -17.3000   22.7261 O   0  0  0  0  0  0  0  0  0  0  0  0
   18.8867  -11.3307   25.5242 O   0  0  0  0  0  0  0  0  0  0  0  0
   14.9455  -11.9533   24.7526 O   0  0  0  0  0  0  0  0  0  0  0  0
  1  5  1  0  0  0  0
  1 18  1  1  0  0  0
  2 18  1  6  0  0  0
  2  3  1  0  0  0  0
  2 12  1  0  0  0  0
  3 19  1  6  0  0  0
  3  4  1  0  0  0  0
  4 20  1  6  0  0  0
  4 10  1  0  0  0  0
  5  6  1  0  0  0  0
  5 14  1  1  0  0  0
  6 21  1  6  0  0  0
  7 13  1  1  0  0  0
  7  6  1  0  0  0  0
  8  9  1  6  0  0  0
  8  7  1  0  0  0  0
 10 16  1  1  0  0  0
 11 10  1  0  0  0  0
 12 17  1  1  0  0  0
 12 11  1  0  0  0  0
 15  9  1  0  0  0  0
 22  8  1  0  0  0  0
 22  1  1  0  0  0  0
M  END
>  <CHROM.1>
-171.21444718,65.17382875,-60.60980757,15.23416159,-13.74329097,25.24297483
-1.00239334,-0.54971662,-2.57294021

>  <Name>
lig.pdb

>  <RI>
0

>  <Rbt.Current_Directory>
/home/itssahil/PROJECTS/Mol_Feturizer/New_Systems/rnas/5bxk

>  <Rbt.Executable>
rbdock ($Id: //depot/dev/client3/rdock/2013.1/src/exe/rbdock.cxx#4 $)

>  <Rbt.Library>
libRbt.so (2013.1, Build901 2013/11/27)

>  <Rbt.Parameter_File>
/export/apps/rDock/src/rDock_2013.1_src/data/scripts/dock_solv.prm

>  <Rbt.Receptor>
prm/pocket_docking_8.prm

>  <SCORE>
-9.79359

>  <SCORE.INTER>
-6.26122

>  <SCORE.INTER.CONST>
1

>  <SCORE.INTER.POLAR>
0

>  <SCORE.INTER.ROT>
3

>  <SCORE.INTER.SOLV>
15.7214

>  <SCORE.INTER.VDW>
-15.0146

>  <SCORE.INTER.norm>
-0.284601

>  <SCORE.INTRA>
-3.53237

>  <SCORE.INTRA.DIHEDRAL>
-6.55225

>  <SCORE.INTRA.DIHEDRAL.0>
7.18044

>  <SCORE.INTRA.POLAR>
0

>  <SCORE.INTRA.POLAR.0>
0

>  <SCORE.INTRA.REPUL>
0

>  <SCORE.INTRA.REPUL.0>
0

>  <SCORE.INTRA.SOLV>
-0.781704

>  <SCORE.INTRA.SOLV.lig_0>
-72.0615

>  <SCORE.INTRA.VDW>
0.134612

>  <SCORE.INTRA.VDW.0>
-1.54792

>  <SCORE.INTRA.norm>
-0.160562

>  <SCORE.RESTR>
0

>  <SCORE.RESTR.CAVITY>
0

>  <SCORE.RESTR.norm>
0

>  <SCORE.SYSTEM>
0

>  <SCORE.SYSTEM.CONST>
0

>  <SCORE.SYSTEM.DIHEDRAL>
0

>  <SCORE.SYSTEM.SOLV>
0

>  <SCORE.SYSTEM.norm>
0

>  <SCORE.heavy>
22

>  <SCORE.norm>
-0.445163

>  <RMSD>
8.953

$$$$
lig.pdb
 OpenBabel11021811523D
libRbt.so/2013.1/901 2013/11/27
 22 23  0  0  0  0  0  0  0  0999 V2000
   15.9273  -13.0897   24.3114 C   0  0  1  0  0  0  0  0  0  0  0  0
   14.5859  -15.0299   25.1386 C   0  0  1  0  0  0  0  0  0  0  0  0
   14.2612  -15.7819   23.7179 C   0  0  1  0  0  0  0  0  0  0  0  0
   12.9540  -16.6963   23.9412 C   0  0  2  0  0  0  0  0  0  0  0  0
   17.3908  -12.4611   24.2258 C   0  0  1  0  0  0  0  0  0  0  0  0
   17.7901  -11.7983   25.6015 C   0  0  2  0  0  0  0  0  0  0  0  0
   16.7537  -10.6096   25.9100 C   0  0  1  0  0  0  0  0  0  0  0  0
   15.2561  -11.2043   26.0781 C   0  0  1  0  0  0  0  0  0  0  0  0
   14.1846  -10.1233   26.3906 C   0  0  0  0  0  0  0  0  0  0  0  0
   13.3209  -17.8057   25.0443 C   0  0  1  0  0  0  0  0  0  0  0  0
   13.6480  -17.0304   26.4192 C   0  0  0  0  0  0  0  0  0  0  0  0
   14.9020  -16.0732   26.2370 C   0  0  2  0  0  0  0  0  0  0  0  0
   17.0698   -9.9250   27.1681 F   0  0  0  0  0  0  0  0  0  0  0  0
   18.3169  -13.6198   23.8265 N   0  0  0  0  0  0  0  0  0  0  0  0
   14.4051   -9.4113   27.5958 N   0  0  0  0  0  0  0  0  0  0  0  0
   12.1397  -18.6861   25.3111 N   0  0  0  0  0  0  0  0  0  0  0  0
   15.1992  -15.3525   27.4712 N   0  0  0  0  0  0  0  0  0  0  0  0
   15.7357  -14.2173   25.0692 O   0  0  0  0  0  0  0  0  0  0  0  0
   13.9543  -14.7333   22.6968 O   0  0  0  0  0  0  0  0  0  0  0  0
   12.6734  -17.3381   22.7434 O   0  0  0  0  0  0  0  0  0  0  0  0
   18.8707  -11.3480   25.4796 O   0  0  0  0  0  0  0  0  0  0  0  0
   14.9228  -11.9744   24.7461 O   0  0  0  0  0  0  0  0  0  0  0  0
  1  5  1  0  0  0  0
  1 18  1  1  0  0  0
  2 18  1  6  0  0  0
  2  3  1  0  0  0  0
  2 12  1  0  0  0  0
  3 19  1  6  0  0  0
  3  4  1  0  0  0  0
  4 20  1  6  0  0  0
  4 10  1  0  0  0  0
  5  6  1  0  0  0  0
  5 14  1  1  0  0  0
  6 21  1  6  0  0  0
  7 13  1  1  0  0  0
  7  6  1  0  0  0  0
  8  9  1  6  0  0  0
  8  7  1  0  0  0  0
 10 16  1  1  0  0  0
 11 10  1  0  0  0  0
 12 17  1  1  0  0  0
 12 11  1  0  0  0  0
 15  9  1  0  0  0  0
 22  8  1  0  0  0  0
 22  1  1  0  0  0  0
M  END
>  <CHROM.1>
-170.69044813,64.85020614,-60.81002069,15.22086141,-13.76579766,25.23601353
-1.00070868,-0.55827367,-2.57442586

>  <Name>
lig.pdb

>  <RI>
0

>  <Rbt.Current_Directory>
/home/itssahil/PROJECTS/Mol_Feturizer/New_Systems/rnas/5bxk

>  <Rbt.Executable>
rbdock ($Id: //depot/dev/client3/rdock/2013.1/src/exe/rbdock.cxx#4 $)

>  <Rbt.Library>
libRbt.so (2013.1, Build901 2013/11/27)

>  <Rbt.Parameter_File>
/export/apps/rDock/src/rDock_2013.1_src/data/scripts/dock_solv.prm

>  <Rbt.Receptor>
prm/pocket_docking_8.prm

>  <SCORE>
-9.76069

>  <SCORE.INTER>
-6.24163

>  <SCORE.INTER.CONST>
1

>  <SCORE.INTER.POLAR>
0

>  <SCORE.INTER.ROT>
3

>  <SCORE.INTER.SOLV>
15.6821

>  <SCORE.INTER.VDW>
-14.9885

>  <SCORE.INTER.norm>
-0.28371

>  <SCORE.INTRA>
-3.51906

>  <SCORE.INTRA.DIHEDRAL>
-6.52371

>  <SCORE.INTRA.DIHEDRAL.0>
7.18044

>  <SCORE.INTRA.POLAR>
0

>  <SCORE.INTRA.POLAR.0>
0

>  <SCORE.INTRA.REPUL>
0

>  <SCORE.INTRA.REPUL.0>
0

>  <SCORE.INTRA.SOLV>
-0.787656

>  <SCORE.INTRA.SOLV.lig_0>
-72.0615

>  <SCORE.INTRA.VDW>
0.136625

>  <SCORE.INTRA.VDW.0>
-1.54792

>  <SCORE.INTRA.norm>
-0.159957

>  <SCORE.RESTR>
0

>  <SCORE.RESTR.CAVITY>
0

>  <SCORE.RESTR.norm>
0

>  <SCORE.SYSTEM>
0

>  <SCORE.SYSTEM.CONST>
0

>  <SCORE.SYSTEM.DIHEDRAL>
0

>  <SCORE.SYSTEM.SOLV>
0

>  <SCORE.SYSTEM.norm>
0

>  <SCORE.heavy>
22

>  <SCORE.norm>
-0.443668

>  <RMSD>
8.971

$$$$
lig.pdb
 OpenBabel11021811523D
libRbt.so/2013.1/901 2013/11/27
 22 23  0  0  0  0  0  0  0  0999 V2000
    3.2464  -22.2943   14.2672 C   0  0  1  0  0  0  0  0  0  0  0  0
    4.7375  -23.8616   13.0146 C   0  0  1  0  0  0  0  0  0  0  0  0
    3.6921  -24.2248   11.8044 C   0  0  1  0  0  0  0  0  0  0  0  0
    4.1802  -25.6096   11.1417 C   0  0  2  0  0  0  0  0  0  0  0  0
    3.2035  -20.9596   15.1394 C   0  0  1  0  0  0  0  0  0  0  0  0
    4.0302  -21.1418   16.4715 C   0  0  2  0  0  0  0  0  0  0  0  0
    3.3540  -22.3204   17.3294 C   0  0  1  0  0  0  0  0  0  0  0  0
    3.4352  -23.7195   16.5165 C   0  0  1  0  0  0  0  0  0  0  0  0
    2.8127  -24.9227   17.2776 C   0  0  0  0  0  0  0  0  0  0  0  0
    5.6372  -25.3588   10.5120 C   0  0  1  0  0  0  0  0  0  0  0  0
    6.6314  -24.9903   11.7261 C   0  0  0  0  0  0  0  0  0  0  0  0
    6.1626  -23.6556   12.4478 C   0  0  2  0  0  0  0  0  0  0  0  0
    4.0543  -22.5395   18.5995 F   0  0  0  0  0  0  0  0  0  0  0  0
    3.7629  -19.8534   14.2322 N   0  0  0  0  0  0  0  0  0  0  0  0
    1.4232  -24.8018   17.5281 N   0  0  0  0  0  0  0  0  0  0  0  0
    6.1587  -26.6158    9.8881 N   0  0  0  0  0  0  0  0  0  0  0  0
    7.0460  -23.3192   13.5603 N   0  0  0  0  0  0  0  0  0  0  0  0
    4.4224  -22.6451   13.6535 O   0  0  0  0  0  0  0  0  0  0  0  0
    2.3369  -24.4225   12.4048 O   0  0  0  0  0  0  0  0  0  0  0  0
    3.3015  -25.9233   10.1147 O   0  0  0  0  0  0  0  0  0  0  0  0
    3.9595  -20.1339   17.0753 O   0  0  0  0  0  0  0  0  0  0  0  0
    2.7191  -23.4823   15.1347 O   0  0  0  0  0  0  0  0  0  0  0  0
  1  5  1  0  0  0  0
  1 18  1  1  0  0  0
  2 18  1  6  0  0  0
  2  3  1  0  0  0  0
  2 12  1  0  0  0  0
  3 19  1  1  0  0  0
  3  4  1  0  0  0  0
  4 20  1  6  0  0  0
  4 10  1  0  0  0  0
  5  6  1  0  0  0  0
  5 14  1  6  0  0  0
  6 21  1  1  0  0  0
  7 13  1  1  0  0  0
  7  6  1  0  0  0  0
  8  9  1  1  0  0  0
  8  7  1  0  0  0  0
 10 16  1  1  0  0  0
 11 10  1  0  0  0  0
 12 17  1  1  0  0  0
 12 11  1  0  0  0  0
 15  9  1  0  0  0  0
 22  8  1  0  0  0  0
 22  1  1  0  0  0  0
M  END
>  <CHROM.1>
169.61878685,57.14407643,63.02779183,4.07809133,-23.47593599,14.14956828
-1.94930381,-0.87191386,-2.34517938

>  <Name>
lig.pdb

>  <RI>
0

>  <Rbt.Current_Directory>
/home/itssahil/PROJECTS/Mol_Feturizer/New_Systems/rnas/5bxk

>  <Rbt.Executable>
rbdock ($Id: //depot/dev/client3/rdock/2013.1/src/exe/rbdock.cxx#4 $)

>  <Rbt.Library>
libRbt.so (2013.1, Build901 2013/11/27)

>  <Rbt.Parameter_File>
/export/apps/rDock/src/rDock_2013.1_src/data/scripts/dock_solv.prm

>  <Rbt.Receptor>
prm/blind_docking_100.prm

>  <SCORE>
-6.23806

>  <SCORE.INTER>
-2.66265

>  <SCORE.INTER.CONST>
1

>  <SCORE.INTER.POLAR>
0

>  <SCORE.INTER.ROT>
3

>  <SCORE.INTER.SOLV>
27.8048

>  <SCORE.INTER.VDW>
-16.6434

>  <SCORE.INTER.norm>
-0.12103

>  <SCORE.INTRA>
-3.57541

>  <SCORE.INTRA.DIHEDRAL>
-6.47164

>  <SCORE.INTRA.DIHEDRAL.0>
7.18044

>  <SCORE.INTRA.POLAR>
0

>  <SCORE.INTRA.POLAR.0>
0

>  <SCORE.INTRA.REPUL>
0

>  <SCORE.INTRA.REPUL.0>
0

>  <SCORE.INTRA.SOLV>
-0.73871

>  <SCORE.INTRA.SOLV.lig_0>
-72.0615

>  <SCORE.INTRA.VDW>
0.0297603

>  <SCORE.INTRA.VDW.0>
-1.54792

>  <SCORE.INTRA.norm>
-0.162519

>  <SCORE.RESTR>
0

>  <SCORE.RESTR.CAVITY>
0

>  <SCORE.RESTR.norm>
0

>  <SCORE.SYSTEM>
0

>  <SCORE.SYSTEM.CONST>
0

>  <SCORE.SYSTEM.DIHEDRAL>
0

>  <SCORE.SYSTEM.SOLV>
0

>  <SCORE.SYSTEM.norm>
0

>  <SCORE.heavy>
22

>  <SCORE.norm>
-0.283548

>  <RMSD>
24.477

$$$$
lig.pdb
 OpenBabel11021811523D
libRbt.so/2013.1/901 2013/11/27
 22 23  0  0  0  0  0  0  0  0999 V2000
    6.1006  -25.5703   10.8053 C   0  0  1  0  0  0  0  0  0  0  0  0
    4.5030  -25.0168   12.6464 C   0  0  1  0  0  0  0  0  0  0  0  0
    4.6097  -23.3806   12.6259 C   0  0  1  0  0  0  0  0  0  0  0  0
    4.1326  -22.8457   14.0687 C   0  0  2  0  0  0  0  0  0  0  0  0
    6.2451  -26.1899    9.3426 C   0  0  1  0  0  0  0  0  0  0  0  0
    6.1272  -27.7631    9.3935 C   0  0  2  0  0  0  0  0  0  0  0  0
    7.3285  -28.3314   10.2970 C   0  0  1  0  0  0  0  0  0  0  0  0
    7.1889  -27.7881   11.8170 C   0  0  1  0  0  0  0  0  0  0  0  0
    8.3062  -28.2977   12.7690 C   0  0  0  0  0  0  0  0  0  0  0  0
    2.5924  -23.2637   14.2557 C   0  0  1  0  0  0  0  0  0  0  0  0
    2.5253  -24.8743   14.2556 C   0  0  0  0  0  0  0  0  0  0  0  0
    3.0357  -25.4553   12.8686 C   0  0  2  0  0  0  0  0  0  0  0  0
    7.3027  -29.7957   10.3779 F   0  0  0  0  0  0  0  0  0  0  0  0
    5.1399  -25.5320    8.5027 N   0  0  0  0  0  0  0  0  0  0  0  0
    8.1798  -27.8561   14.1096 N   0  0  0  0  0  0  0  0  0  0  0  0
    2.0865  -22.8068   15.5887 N   0  0  0  0  0  0  0  0  0  0  0  0
    2.9952  -26.9146   12.8611 N   0  0  0  0  0  0  0  0  0  0  0  0
    4.8723  -25.5976   11.4161 O   0  0  0  0  0  0  0  0  0  0  0  0
    6.0438  -23.0110   12.4186 O   0  0  0  0  0  0  0  0  0  0  0  0
    4.2180  -21.4608   14.0591 O   0  0  0  0  0  0  0  0  0  0  0  0
    6.2464  -28.1650    8.2937 O   0  0  0  0  0  0  0  0  0  0  0  0
    7.1769  -26.2159   11.7362 O   0  0  0  0  0  0  0  0  0  0  0  0
  1  5  1  0  0  0  0
  1 18  1  1  0  0  0
  2 18  1  6  0  0  0
  2  3  1  0  0  0  0
  2 12  1  0  0  0  0
  3 19  1  1  0  0  0
  3  4  1  0  0  0  0
  4 20  1  6  0  0  0
  4 10  1  0  0  0  0
  5  6  1  0  0  0  0
  5 14  1  6  0  0  0
  6 21  1  6  0  0  0
  7 13  1  1  0  0  0
  7  6  1  0  0  0  0
  8  9  1  1  0  0  0
  8  7  1  0  0  0  0
 10 16  1  1  0  0  0
 11 10  1  0  0  0  0
 12 17  1  1  0  0  0
 12 11  1  0  0  0  0
 15  9  1  0  0  0  0
 22  8  1  0  0  0  0
 22  1  1  0  0  0  0
M  END
>  <CHROM.1>
-174.47368404,64.01775235,-178.59118733,5.36454672,-25.77675297,11.98983114
0.65286120,0.88029418,-1.70330143

>  <Name>
lig.pdb

>  <RI>
0

>  <Rbt.Current_Directory>
/home/itssahil/PROJECTS/Mol_Feturizer/New_Systems/rnas/5bxk

>  <Rbt.Executable>
rbdock ($Id: //depot/dev/client3/rdock/2013.1/src/exe/rbdock.cxx#4 $)

>  <Rbt.Library>
libRbt.so (2013.1, Build901 2013/11/27)

>  <Rbt.Parameter_File>
/export/apps/rDock/src/rDock_2013.1_src/data/scripts/dock_solv.prm

>  <Rbt.Receptor>
prm/blind_docking_80.prm

>  <SCORE>
-7.34419

>  <SCORE.INTER>
-3.1309

>  <SCORE.INTER.CONST>
1

>  <SCORE.INTER.POLAR>
0

>  <SCORE.INTER.ROT>
3

>  <SCORE.INTER.SOLV>
16.4676

>  <SCORE.INTER.VDW>
-13.1765

>  <SCORE.INTER.norm>
-0.142314

>  <SCORE.INTRA>
-4.21328

>  <SCORE.INTRA.DIHEDRAL>
-6.81411

>  <SCORE.INTRA.DIHEDRAL.0>
7.18044

>  <SCORE.INTRA.POLAR>
0

>  <SCORE.INTRA.POLAR.0>
0

>  <SCORE.INTRA.REPUL>
0

>  <SCORE.INTRA.REPUL.0>
0

>  <SCORE.INTRA.SOLV>
-1.7558

>  <SCORE.INTRA.SOLV.lig_0>
-72.0615

>  <SCORE.INTRA.VDW>
0.0716773

>  <SCORE.INTRA.VDW.0>
-1.54792

>  <SCORE.INTRA.norm>
-0.191513

>  <SCORE.RESTR>
0

>  <SCORE.RESTR.CAVITY>
0

>  <SCORE.RESTR.norm>
0

>  <SCORE.SYSTEM>
0

>  <SCORE.SYSTEM.CONST>
0

>  <SCORE.SYSTEM.DIHEDRAL>
0

>  <SCORE.SYSTEM.SOLV>
0

>  <SCORE.SYSTEM.norm>
0

>  <SCORE.heavy>
22

>  <SCORE.norm>
-0.333827

>  <RMSD>
26.074

$$$$
lig.pdb
 OpenBabel11021811523D
libRbt.so/2013.1/901 2013/11/27
 22 23  0  0  0  0  0  0  0  0999 V2000
    3.7123  -25.9011   14.7118 C   0  0  1  0  0  0  0  0  0  0  0  0
    4.2969  -25.7936   12.2838 C   0  0  1  0  0  0  0  0  0  0  0  0
    2.9125  -26.4058   11.6529 C   0  0  1  0  0  0  0  0  0  0  0  0
    3.2550  -26.9601   10.1796 C   0  0  2  0  0  0  0  0  0  0  0  0
    3.6021  -25.0723   16.0701 C   0  0  1  0  0  0  0  0  0  0  0  0
    5.0373  -24.6839   16.6000 C   0  0  2  0  0  0  0  0  0  0  0  0
    5.8470  -26.0378   16.9059 C   0  0  1  0  0  0  0  0  0  0  0  0
    6.0505  -26.8869   15.5411 C   0  0  1  0  0  0  0  0  0  0  0  0
    6.8364  -28.2125   15.7399 C   0  0  0  0  0  0  0  0  0  0  0  0
    3.7235  -25.7085    9.2875 C   0  0  1  0  0  0  0  0  0  0  0  0
    5.0746  -25.1251    9.9451 C   0  0  0  0  0  0  0  0  0  0  0  0
    4.8010  -24.6109   11.4225 C   0  0  2  0  0  0  0  0  0  0  0  0
    7.1910  -25.7624   17.4251 F   0  0  0  0  0  0  0  0  0  0  0  0
    2.7327  -23.8495   15.7403 N   0  0  0  0  0  0  0  0  0  0  0  0
    7.0407  -28.9562   14.5510 N   0  0  0  0  0  0  0  0  0  0  0  0
    4.0718  -26.1571    7.9023 N   0  0  0  0  0  0  0  0  0  0  0  0
    6.0210  -24.0945   12.0358 N   0  0  0  0  0  0  0  0  0  0  0  0
    4.1097  -25.2504   13.5711 O   0  0  0  0  0  0  0  0  0  0  0  0
    2.4747  -27.5475   12.5139 O   0  0  0  0  0  0  0  0  0  0  0  0
    2.0876  -27.4785    9.6376 O   0  0  0  0  0  0  0  0  0  0  0  0
    4.8964  -24.0823   17.6018 O   0  0  0  0  0  0  0  0  0  0  0  0
    4.6136  -27.1541   14.9560 O   0  0  0  0  0  0  0  0  0  0  0  0
  1  5  1  0  0  0  0
  1 18  1  6  0  0  0
  2 18  1  1  0  0  0
  2  3  1  0  0  0  0
  2 12  1  0  0  0  0
  3 19  1  1  0  0  0
  3  4  1  0  0  0  0
  4 20  1  6  0  0  0
  4 10  1  0  0  0  0
  5  6  1  0  0  0  0
  5 14  1  6  0  0  0
  6 21  1  1  0  0  0
  7 13  1  6  0  0  0
  7  6  1  0  0  0  0
  8  9  1  1  0  0  0
  8  7  1  0  0  0  0
 10 16  1  6  0  0  0
 11 10  1  0  0  0  0
 12 17  1  1  0  0  0
 12 11  1  0  0  0  0
 15  9  1  0  0  0  0
 22  8  1  0  0  0  0
 22  1  1  0  0  0  0
M  END
>  <CHROM.1>
178.63153675,62.42106446,-179.05367682,4.58321746,-26.00001240,13.53609191
1.10073675,-0.86960044,1.13051963

>  <Name>
lig.pdb

>  <RI>
0

>  <Rbt.Current_Directory>
/home/itssahil/PROJECTS/Mol_Feturizer/New_Systems/rnas/5bxk

>  <Rbt.Executable>
rbdock ($Id: //depot/dev/client3/rdock/2013.1/src/exe/rbdock.cxx#4 $)

>  <Rbt.Library>
libRbt.so (2013.1, Build901 2013/11/27)

>  <Rbt.Parameter_File>
/export/apps/rDock/src/rDock_2013.1_src/data/scripts/dock_solv.prm

>  <Rbt.Receptor>
prm/blind_docking_40.prm

>  <SCORE>
-5.13348

>  <SCORE.INTER>
-0.793145

>  <SCORE.INTER.CONST>
1

>  <SCORE.INTER.POLAR>
0

>  <SCORE.INTER.ROT>
3

>  <SCORE.INTER.SOLV>
11.6584

>  <SCORE.INTER.VDW>
-10.0149

>  <SCORE.INTER.norm>
-0.036052

>  <SCORE.INTRA>
-4.34034

>  <SCORE.INTRA.DIHEDRAL>
-7.00381

>  <SCORE.INTRA.DIHEDRAL.0>
7.18044

>  <SCORE.INTRA.POLAR>
0

>  <SCORE.INTRA.POLAR.0>
0

>  <SCORE.INTRA.REPUL>
0

>  <SCORE.INTRA.REPUL.0>
0

>  <SCORE.INTRA.SOLV>
-1.78183

>  <SCORE.INTRA.SOLV.lig_0>
-72.0615

>  <SCORE.INTRA.VDW>
0.0524792

>  <SCORE.INTRA.VDW.0>
-1.54792

>  <SCORE.INTRA.norm>
-0.197288

>  <SCORE.RESTR>
0

>  <SCORE.RESTR.CAVITY>
0

>  <SCORE.RESTR.norm>
0

>  <SCORE.SYSTEM>
0

>  <SCORE.SYSTEM.CONST>
0

>  <SCORE.SYSTEM.DIHEDRAL>
0

>  <SCORE.SYSTEM.SOLV>
0

>  <SCORE.SYSTEM.norm>
0

>  <SCORE.heavy>
22

>  <SCORE.norm>
-0.23334

>  <RMSD>
26.118

$$$$
lig.pdb
 OpenBabel11021811523D
libRbt.so/2013.1/901 2013/11/27
 22 23  0  0  0  0  0  0  0  0999 V2000
    6.8603  -27.2107   11.3831 C   0  0  1  0  0  0  0  0  0  0  0  0
    5.4617  -26.0063   13.0690 C   0  0  1  0  0  0  0  0  0  0  0  0
    5.9593  -26.8220   14.4017 C   0  0  1  0  0  0  0  0  0  0  0  0
    5.6933  -25.8746   15.6772 C   0  0  2  0  0  0  0  0  0  0  0  0
    6.8648  -27.9207    9.9549 C   0  0  1  0  0  0  0  0  0  0  0  0
    6.1485  -29.3251   10.0323 C   0  0  2  0  0  0  0  0  0  0  0  0
    6.9682  -30.2553   11.0546 C   0  0  1  0  0  0  0  0  0  0  0  0
    6.9345  -29.6143   12.5422 C   0  0  1  0  0  0  0  0  0  0  0  0
    7.6957  -30.4557   13.6038 C   0  0  0  0  0  0  0  0  0  0  0  0
    6.6017  -24.5606   15.5030 C   0  0  1  0  0  0  0  0  0  0  0  0
    6.0949  -23.7949   14.1781 C   0  0  0  0  0  0  0  0  0  0  0  0
    6.2885  -24.7098   12.8946 C   0  0  2  0  0  0  0  0  0  0  0  0
    6.3761  -31.5925   11.1677 F   0  0  0  0  0  0  0  0  0  0  0  0
    6.1633  -26.9407    9.0024 N   0  0  0  0  0  0  0  0  0  0  0  0
    7.5356  -30.0009   14.9363 N   0  0  0  0  0  0  0  0  0  0  0  0
    6.3920  -23.6257   16.6534 N   0  0  0  0  0  0  0  0  0  0  0  0
    5.8182  -24.0339   11.6892 N   0  0  0  0  0  0  0  0  0  0  0  0
    5.6737  -26.7337   11.8802 O   0  0  0  0  0  0  0  0  0  0  0  0
    5.1253  -28.0567   14.5291 O   0  0  0  0  0  0  0  0  0  0  0  0
    6.1137  -26.5571   16.8098 O   0  0  0  0  0  0  0  0  0  0  0  0
    6.1863  -29.8039    8.9578 O   0  0  0  0  0  0  0  0  0  0  0  0
    7.5331  -28.1631   12.4233 O   0  0  0  0  0  0  0  0  0  0  0  0
  1  5  1  0  0  0  0
  1 18  1  1  0  0  0
  2 18  1  6  0  0  0
  2  3  1  0  0  0  0
  2 12  1  0  0  0  0
  3 19  1  1  0  0  0
  3  4  1  0  0  0  0
  4 20  1  1  0  0  0
  4 10  1  0  0  0  0
  5  6  1  0  0  0  0
  5 14  1  6  0  0  0
  6 21  1  6  0  0  0
  7 13  1  1  0  0  0
  7  6  1  0  0  0  0
  8  9  1  1  0  0  0
  8  7  1  0  0  0  0
 10 16  1  1  0  0  0
 11 10  1  0  0  0  0
 12 17  1  6  0  0  0
 12 11  1  0  0  0  0
 15  9  1  0  0  0  0
 22  8  1  0  0  0  0
 22  1  1  0  0  0  0
M  END
>  <CHROM.1>
-175.62817617,-58.88457954,-172.45358428,6.37774794,-27.45368554,12.81589041
1.06385087,1.41257728,-1.88371390

>  <Name>
lig.pdb

>  <RI>
0

>  <Rbt.Current_Directory>
/home/itssahil/PROJECTS/Mol_Feturizer/New_Systems/rnas/5bxk

>  <Rbt.Executable>
rbdock ($Id: //depot/dev/client3/rdock/2013.1/src/exe/rbdock.cxx#4 $)

>  <Rbt.Library>
libRbt.so (2013.1, Build901 2013/11/27)

>  <Rbt.Parameter_File>
/export/apps/rDock/src/rDock_2013.1_src/data/scripts/dock_solv.prm

>  <Rbt.Receptor>
prm/blind_docking_60.prm

>  <SCORE>
-2.57146

>  <SCORE.INTER>
0.266422

>  <SCORE.INTER.CONST>
1

>  <SCORE.INTER.POLAR>
0

>  <SCORE.INTER.ROT>
3

>  <SCORE.INTER.SOLV>
12.5263

>  <SCORE.INTER.VDW>
-9.59781

>  <SCORE.INTER.norm>
0.0121101

>  <SCORE.INTRA>
-2.83789

>  <SCORE.INTRA.DIHEDRAL>
-6.74361

>  <SCORE.INTRA.DIHEDRAL.0>
7.18044

>  <SCORE.INTRA.POLAR>
0

>  <SCORE.INTRA.POLAR.0>
0

>  <SCORE.INTRA.REPUL>
0

>  <SCORE.INTRA.REPUL.0>
0

>  <SCORE.INTRA.SOLV>
1.50141

>  <SCORE.INTRA.SOLV.lig_0>
-72.0615

>  <SCORE.INTRA.VDW>
-0.216784

>  <SCORE.INTRA.VDW.0>
-1.54792

>  <SCORE.INTRA.norm>
-0.128995

>  <SCORE.RESTR>
0

>  <SCORE.RESTR.CAVITY>
0

>  <SCORE.RESTR.norm>
0

>  <SCORE.SYSTEM>
0

>  <SCORE.SYSTEM.CONST>
0

>  <SCORE.SYSTEM.DIHEDRAL>
0

>  <SCORE.SYSTEM.SOLV>
0

>  <SCORE.SYSTEM.norm>
0

>  <SCORE.heavy>
22

>  <SCORE.norm>
-0.116885

>  <RMSD>
26.166

$$$$
lig.pdb
 OpenBabel11021811523D
libRbt.so/2013.1/901 2013/11/27
 22 23  0  0  0  0  0  0  0  0999 V2000
    2.7100  -25.5223   15.8514 C   0  0  1  0  0  0  0  0  0  0  0  0
    3.2418  -26.4880   13.6080 C   0  0  1  0  0  0  0  0  0  0  0  0
    2.1988  -27.7534   13.6256 C   0  0  1  0  0  0  0  0  0  0  0  0
    2.7340  -28.8373   12.5608 C   0  0  2  0  0  0  0  0  0  0  0  0
    2.1689  -24.2387   16.6284 C   0  0  1  0  0  0  0  0  0  0  0  0
    3.2590  -23.0973   16.6387 C   0  0  2  0  0  0  0  0  0  0  0  0
    4.5548  -23.6423   17.4172 C   0  0  1  0  0  0  0  0  0  0  0  0
    5.1888  -24.9074   16.6282 C   0  0  1  0  0  0  0  0  0  0  0  0
    6.4575  -25.4956   17.3056 C   0  0  0  0  0  0  0  0  0  0  0  0
    2.6938  -28.1511   11.1084 C   0  0  1  0  0  0  0  0  0  0  0  0
    3.7169  -26.9057   11.1339 C   0  0  0  0  0  0  0  0  0  0  0  0
    3.2606  -25.8287   12.2081 C   0  0  2  0  0  0  0  0  0  0  0  0
    5.6124  -22.6285   17.4896 F   0  0  0  0  0  0  0  0  0  0  0  0
    0.8777  -23.8293   15.9038 N   0  0  0  0  0  0  0  0  0  0  0  0
    7.0912  -26.5260   16.5674 N   0  0  0  0  0  0  0  0  0  0  0  0
    3.1936  -29.1041   10.0676 N   0  0  0  0  0  0  0  0  0  0  0  0
    4.1883  -24.7024   12.2527 N   0  0  0  0  0  0  0  0  0  0  0  0
    2.8553  -25.4573   14.4887 O   0  0  0  0  0  0  0  0  0  0  0  0
    2.2255  -28.3585   14.9928 O   0  0  0  0  0  0  0  0  0  0  0  0
    1.8553  -29.9113   12.5680 O   0  0  0  0  0  0  0  0  0  0  0  0
    2.8105  -22.1817   17.2269 O   0  0  0  0  0  0  0  0  0  0  0  0
    4.0481  -25.9861   16.5119 O   0  0  0  0  0  0  0  0  0  0  0  0
  1  5  1  0  0  0  0
  1 18  1  6  0  0  0
  2 18  1  1  0  0  0
  2  3  1  0  0  0  0
  2 12  1  0  0  0  0
  3 19  1  1  0  0  0
  3  4  1  0  0  0  0
  4 20  1  6  0  0  0
  4 10  1  0  0  0  0
  5  6  1  0  0  0  0
  5 14  1  6  0  0  0
  6 21  1  1  0  0  0
  7 13  1  6  0  0  0
  7  6  1  0  0  0  0
  8  9  1  1  0  0  0
  8  7  1  0  0  0  0
 10 16  1  6  0  0  0
 11 10  1  0  0  0  0
 12 17  1  1  0  0  0
 12 11  1  0  0  0  0
 15  9  1  0  0  0  0
 22  8  1  0  0  0  0
 22  1  1  0  0  0  0
M  END
>  <CHROM.1>
-176.14526020,61.27218402,-174.73918828,3.51715467,-25.85379445,14.73366648
1.32854742,-0.38646957,0.74986805

>  <Name>
lig.pdb

>  <RI>
0

>  <Rbt.Current_Directory>
/home/itssahil/PROJECTS/Mol_Feturizer/New_Systems/rnas/5bxk

>  <Rbt.Executable>
rbdock ($Id: //depot/dev/client3/rdock/2013.1/src/exe/rbdock.cxx#4 $)

>  <Rbt.Library>
libRbt.so (2013.1, Build901 2013/11/27)

>  <Rbt.Parameter_File>
/export/apps/rDock/src/rDock_2013.1_src/data/scripts/dock_solv.prm

>  <Rbt.Receptor>
prm/blind_docking_40.prm

>  <SCORE>
-5.03442

>  <SCORE.INTER>
-0.773343

>  <SCORE.INTER.CONST>
1

>  <SCORE.INTER.POLAR>
0

>  <SCORE.INTER.ROT>
3

>  <SCORE.INTER.SOLV>
10.48

>  <SCORE.INTER.VDW>
-9.60888

>  <SCORE.INTER.norm>
-0.035152

>  <SCORE.INTRA>
-4.26108

>  <SCORE.INTRA.DIHEDRAL>
-6.86612

>  <SCORE.INTRA.DIHEDRAL.0>
7.18044

>  <SCORE.INTRA.POLAR>
0

>  <SCORE.INTRA.POLAR.0>
0

>  <SCORE.INTRA.REPUL>
0

>  <SCORE.INTRA.REPUL.0>
0

>  <SCORE.INTRA.SOLV>
-1.84544

>  <SCORE.INTRA.SOLV.lig_0>
-72.0615

>  <SCORE.INTRA.VDW>
0.0947003

>  <SCORE.INTRA.VDW.0>
-1.54792

>  <SCORE.INTRA.norm>
-0.193686

>  <SCORE.RESTR>
0

>  <SCORE.RESTR.CAVITY>
0

>  <SCORE.RESTR.norm>
0

>  <SCORE.SYSTEM>
0

>  <SCORE.SYSTEM.CONST>
0

>  <SCORE.SYSTEM.DIHEDRAL>
0

>  <SCORE.SYSTEM.SOLV>
0

>  <SCORE.SYSTEM.norm>
0

>  <SCORE.heavy>
22

>  <SCORE.norm>
-0.228837

>  <RMSD>
26.178

$$$$
lig.pdb
 OpenBabel11021811523D
libRbt.so/2013.1/901 2013/11/27
 22 23  0  0  0  0  0  0  0  0999 V2000
    5.2492  -28.0905   12.8264 C   0  0  1  0  0  0  0  0  0  0  0  0
    3.9285  -26.7334   14.4582 C   0  0  1  0  0  0  0  0  0  0  0  0
    2.6208  -27.7087   14.6248 C   0  0  1  0  0  0  0  0  0  0  0  0
    1.4037  -26.7999   15.1615 C   0  0  2  0  0  0  0  0  0  0  0  0
    6.6731  -28.7367   12.5120 C   0  0  1  0  0  0  0  0  0  0  0  0
    7.7431  -27.6103   12.2332 C   0  0  2  0  0  0  0  0  0  0  0  0
    7.2764  -26.7780   10.9402 C   0  0  1  0  0  0  0  0  0  0  0  0
    5.8640  -26.0398   11.2316 C   0  0  1  0  0  0  0  0  0  0  0  0
    5.3386  -25.1989   10.0352 C   0  0  0  0  0  0  0  0  0  0  0  0
    1.8199  -26.2372   16.6079 C   0  0  1  0  0  0  0  0  0  0  0  0
    3.1143  -25.2978   16.4068 C   0  0  0  0  0  0  0  0  0  0  0  0
    4.3313  -26.1385   15.8288 C   0  0  2  0  0  0  0  0  0  0  0  0
    8.2331  -25.7195   10.6001 F   0  0  0  0  0  0  0  0  0  0  0  0
    7.0156  -29.6005   13.7352 N   0  0  0  0  0  0  0  0  0  0  0  0
    4.9570  -25.9635    8.9047 N   0  0  0  0  0  0  0  0  0  0  0  0
    0.7334  -25.3688   17.1617 N   0  0  0  0  0  0  0  0  0  0  0  0
    5.5060  -25.2956   15.6267 N   0  0  0  0  0  0  0  0  0  0  0  0
    5.0706  -27.4322   14.0169 O   0  0  0  0  0  0  0  0  0  0  0  0
    2.2684  -28.2481   13.2753 O   0  0  0  0  0  0  0  0  0  0  0  0
    0.2929  -27.6186   15.3072 O   0  0  0  0  0  0  0  0  0  0  0  0
    8.7678  -28.1415   12.0026 O   0  0  0  0  0  0  0  0  0  0  0  0
    4.8399  -27.1653   11.6354 O   0  0  0  0  0  0  0  0  0  0  0  0
  1  5  1  0  0  0  0
  1 18  1  1  0  0  0
  2 18  1  1  0  0  0
  2  3  1  0  0  0  0
  2 12  1  0  0  0  0
  3 19  1  6  0  0  0
  3  4  1  0  0  0  0
  4 20  1  1  0  0  0
  4 10  1  0  0  0  0
  5  6  1  0  0  0  0
  5 14  1  1  0  0  0
  6 21  1  6  0  0  0
  7 13  1  1  0  0  0
  7  6  1  0  0  0  0
  8  9  1  6  0  0  0
  8  7  1  0  0  0  0
 10 16  1  6  0  0  0
 11 10  1  0  0  0  0
 12 17  1  6  0  0  0
 12 11  1  0  0  0  0
 15  9  1  0  0  0  0
 22  8  1  0  0  0  0
 22  1  1  0  0  0  0
M  END
>  <CHROM.1>
176.22663573,63.15921773,67.33915514,4.72637650,-26.90671442,13.35773667
-0.67587528,-0.29623214,1.82803770

>  <Name>
lig.pdb

>  <RI>
0

>  <Rbt.Current_Directory>
/home/itssahil/PROJECTS/Mol_Feturizer/New_Systems/rnas/5bxk

>  <Rbt.Executable>
rbdock ($Id: //depot/dev/client3/rdock/2013.1/src/exe/rbdock.cxx#4 $)

>  <Rbt.Library>
libRbt.so (2013.1, Build901 2013/11/27)

>  <Rbt.Parameter_File>
/export/apps/rDock/src/rDock_2013.1_src/data/scripts/dock_solv.prm

>  <Rbt.Receptor>
prm/blind_docking_80.prm

>  <SCORE>
-7.63152

>  <SCORE.INTER>
-3.84654

>  <SCORE.INTER.CONST>
1

>  <SCORE.INTER.POLAR>
0

>  <SCORE.INTER.ROT>
3

>  <SCORE.INTER.SOLV>
12.7135

>  <SCORE.INTER.VDW>
-12.4022

>  <SCORE.INTER.norm>
-0.174843

>  <SCORE.INTRA>
-3.78498

>  <SCORE.INTRA.DIHEDRAL>
-6.73451

>  <SCORE.INTRA.DIHEDRAL.0>
7.18044

>  <SCORE.INTRA.POLAR>
0

>  <SCORE.INTRA.POLAR.0>
0

>  <SCORE.INTRA.REPUL>
0

>  <SCORE.INTRA.REPUL.0>
0

>  <SCORE.INTRA.SOLV>
-0.761185

>  <SCORE.INTRA.SOLV.lig_0>
-72.0615

>  <SCORE.INTRA.VDW>
-0.0371276

>  <SCORE.INTRA.VDW.0>
-1.54792

>  <SCORE.INTRA.norm>
-0.172044

>  <SCORE.RESTR>
0

>  <SCORE.RESTR.CAVITY>
0

>  <SCORE.RESTR.norm>
0

>  <SCORE.SYSTEM>
0

>  <SCORE.SYSTEM.CONST>
0

>  <SCORE.SYSTEM.DIHEDRAL>
0

>  <SCORE.SYSTEM.SOLV>
0

>  <SCORE.SYSTEM.norm>
0

>  <SCORE.heavy>
22

>  <SCORE.norm>
-0.346887

>  <RMSD>
26.622

$$$$
lig.pdb
 OpenBabel11021811523D
libRbt.so/2013.1/901 2013/11/27
 22 23  0  0  0  0  0  0  0  0999 V2000
    4.7487  -24.4949   12.5774 C   0  0  1  0  0  0  0  0  0  0  0  0
    5.0183  -26.1095   10.6882 C   0  0  1  0  0  0  0  0  0  0  0  0
    3.6397  -25.7064    9.8969 C   0  0  1  0  0  0  0  0  0  0  0  0
    3.2720  -26.9266    8.9116 C   0  0  2  0  0  0  0  0  0  0  0  0
    5.5382  -23.6092   13.6434 C   0  0  1  0  0  0  0  0  0  0  0  0
    6.4163  -24.5249   14.5824 C   0  0  2  0  0  0  0  0  0  0  0  0
    5.4364  -25.5147   15.3839 C   0  0  1  0  0  0  0  0  0  0  0  0
    4.6597  -26.4898   14.3491 C   0  0  1  0  0  0  0  0  0  0  0  0
    3.6942  -27.4929   15.0389 C   0  0  0  0  0  0  0  0  0  0  0  0
    4.4639  -27.0626    7.8425 C   0  0  1  0  0  0  0  0  0  0  0  0
    5.8021  -27.4434    8.6566 C   0  0  0  0  0  0  0  0  0  0  0  0
    6.1800  -26.2913    9.6821 C   0  0  2  0  0  0  0  0  0  0  0  0
    6.1767  -26.3897   16.2992 F   0  0  0  0  0  0  0  0  0  0  0  0
    6.3737  -22.6170   12.8205 N   0  0  0  0  0  0  0  0  0  0  0  0
    2.6105  -26.8872   15.7223 N   0  0  0  0  0  0  0  0  0  0  0  0
    4.1915  -28.1929    6.8992 N   0  0  0  0  0  0  0  0  0  0  0  0
    7.3819  -26.6311   10.4378 N   0  0  0  0  0  0  0  0  0  0  0  0
    5.4540  -25.0953   11.5651 O   0  0  0  0  0  0  0  0  0  0  0  0
    2.5506  -25.5524   10.9100 O   0  0  0  0  0  0  0  0  0  0  0  0
    2.1068  -26.5924    8.2362 O   0  0  0  0  0  0  0  0  0  0  0  0
    6.9690  -23.8231   15.3487 O   0  0  0  0  0  0  0  0  0  0  0  0
    3.8926  -25.5579   13.3383 O   0  0  0  0  0  0  0  0  0  0  0  0
  1  5  1  0  0  0  0
  1 18  1  6  0  0  0
  2 18  1  1  0  0  0
  2  3  1  0  0  0  0
  2 12  1  0  0  0  0
  3 19  1  1  0  0  0
  3  4  1  0  0  0  0
  4 20  1  6  0  0  0
  4 10  1  0  0  0  0
  5  6  1  0  0  0  0
  5 14  1  6  0  0  0
  6 21  1  1  0  0  0
  7 13  1  1  0  0  0
  7  6  1  0  0  0  0
  8  9  1  1  0  0  0
  8  7  1  0  0  0  0
 10 16  1  6  0  0  0
 11 10  1  0  0  0  0
 12 17  1  1  0  0  0
 12 11  1  0  0  0  0
 15  9  1  0  0  0  0
 22  8  1  0  0  0  0
 22  1  1  0  0  0  0
M  END
>  <CHROM.1>
166.49782634,54.86136297,64.01503268,4.84200926,-25.86131651,12.02004901
-1.33903422,-0.55017674,-1.69539091

>  <Name>
lig.pdb

>  <RI>
0

>  <Rbt.Current_Directory>
/home/itssahil/PROJECTS/Mol_Feturizer/New_Systems/rnas/5bxk

>  <Rbt.Executable>
rbdock ($Id: //depot/dev/client3/rdock/2013.1/src/exe/rbdock.cxx#4 $)

>  <Rbt.Library>
libRbt.so (2013.1, Build901 2013/11/27)

>  <Rbt.Parameter_File>
/export/apps/rDock/src/rDock_2013.1_src/data/scripts/dock_solv.prm

>  <Rbt.Receptor>
prm/blind_docking_60.prm

>  <SCORE>
-3.80889

>  <SCORE.INTER>
-0.53033

>  <SCORE.INTER.CONST>
1

>  <SCORE.INTER.POLAR>
0

>  <SCORE.INTER.ROT>
3

>  <SCORE.INTER.SOLV>
19.1902

>  <SCORE.INTER.VDW>
-12.3503

>  <SCORE.INTER.norm>
-0.0241059

>  <SCORE.INTRA>
-3.27856

>  <SCORE.INTRA.DIHEDRAL>
-6.02598

>  <SCORE.INTRA.DIHEDRAL.0>
7.18044

>  <SCORE.INTRA.POLAR>
0

>  <SCORE.INTRA.POLAR.0>
0

>  <SCORE.INTRA.REPUL>
0

>  <SCORE.INTRA.REPUL.0>
0

>  <SCORE.INTRA.SOLV>
-0.690225

>  <SCORE.INTRA.SOLV.lig_0>
-72.0615

>  <SCORE.INTRA.VDW>
0.079536

>  <SCORE.INTRA.VDW.0>
-1.54792

>  <SCORE.INTRA.norm>
-0.149026

>  <SCORE.RESTR>
0

>  <SCORE.RESTR.CAVITY>
0

>  <SCORE.RESTR.norm>
0

>  <SCORE.SYSTEM>
0

>  <SCORE.SYSTEM.CONST>
0

>  <SCORE.SYSTEM.DIHEDRAL>
0

>  <SCORE.SYSTEM.SOLV>
0

>  <SCORE.SYSTEM.norm>
0

>  <SCORE.heavy>
22

>  <SCORE.norm>
-0.173132

>  <RMSD>
26.755

$$$$
lig.pdb
 OpenBabel11021811523D
libRbt.so/2013.1/901 2013/11/27
 22 23  0  0  0  0  0  0  0  0999 V2000
    4.7080  -27.0069   11.5982 C   0  0  1  0  0  0  0  0  0  0  0  0
    3.1156  -26.2782   13.3820 C   0  0  1  0  0  0  0  0  0  0  0  0
    3.2426  -27.6410   14.2853 C   0  0  1  0  0  0  0  0  0  0  0  0
    1.9605  -27.6982   15.2590 C   0  0  2  0  0  0  0  0  0  0  0  0
    5.9382  -26.5688   10.6824 C   0  0  1  0  0  0  0  0  0  0  0  0
    5.4803  -25.5021    9.6130 C   0  0  2  0  0  0  0  0  0  0  0  0
    4.3703  -26.1778    8.6676 C   0  0  1  0  0  0  0  0  0  0  0  0
    3.0644  -26.5785    9.5387 C   0  0  1  0  0  0  0  0  0  0  0  0
    1.9297  -27.2313    8.7016 C   0  0  0  0  0  0  0  0  0  0  0  0
    2.0332  -26.4213   16.2319 C   0  0  1  0  0  0  0  0  0  0  0  0
    1.9210  -25.1041   15.3095 C   0  0  0  0  0  0  0  0  0  0  0  0
    3.1387  -25.0275   14.2930 C   0  0  2  0  0  0  0  0  0  0  0  0
    3.9055  -25.2535    7.6279 F   0  0  0  0  0  0  0  0  0  0  0  0
    7.0037  -26.0304   11.6493 N   0  0  0  0  0  0  0  0  0  0  0  0
    2.2996  -28.4353    8.0521 N   0  0  0  0  0  0  0  0  0  0  0  0
    0.8579  -26.4051   17.1592 N   0  0  0  0  0  0  0  0  0  0  0  0
    3.0405  -23.8467   13.4402 N   0  0  0  0  0  0  0  0  0  0  0  0
    4.2063  -26.1079   12.5052 O   0  0  0  0  0  0  0  0  0  0  0  0
    3.2058  -28.8161   13.3612 O   0  0  0  0  0  0  0  0  0  0  0  0
    2.0612  -28.8482   16.0288 O   0  0  0  0  0  0  0  0  0  0  0  0
    6.4216  -25.2208    8.9648 O   0  0  0  0  0  0  0  0  0  0  0  0
    3.5605  -27.5408   10.6816 O   0  0  0  0  0  0  0  0  0  0  0  0
  1  5  1  0  0  0  0
  1 18  1  6  0  0  0
  2 18  1  6  0  0  0
  2  3  1  0  0  0  0
  2 12  1  0  0  0  0
  3 19  1  6  0  0  0
  3  4  1  0  0  0  0
  4 20  1  1  0  0  0
  4 10  1  0  0  0  0
  5  6  1  0  0  0  0
  5 14  1  1  0  0  0
  6 21  1  6  0  0  0
  7 13  1  6  0  0  0
  7  6  1  0  0  0  0
  8  9  1  6  0  0  0
  8  7  1  0  0  0  0
 10 16  1  1  0  0  0
 11 10  1  0  0  0  0
 12 17  1  6  0  0  0
 12 11  1  0  0  0  0
 15  9  1  0  0  0  0
 22  8  1  0  0  0  0
 22  1  1  0  0  0  0
M  END
>  <CHROM.1>
178.46466423,52.42829004,60.27637987,3.53302444,-26.53918171,12.06454366
-1.10718491,0.73717535,1.33863021

>  <Name>
lig.pdb

>  <RI>
0

>  <Rbt.Current_Directory>
/home/itssahil/PROJECTS/Mol_Feturizer/New_Systems/rnas/5bxk

>  <Rbt.Executable>
rbdock ($Id: //depot/dev/client3/rdock/2013.1/src/exe/rbdock.cxx#4 $)

>  <Rbt.Library>
libRbt.so (2013.1, Build901 2013/11/27)

>  <Rbt.Parameter_File>
/export/apps/rDock/src/rDock_2013.1_src/data/scripts/dock_solv.prm

>  <Rbt.Receptor>
prm/blind_docking_80.prm

>  <SCORE>
-5.31015

>  <SCORE.INTER>
-1.63137

>  <SCORE.INTER.CONST>
1

>  <SCORE.INTER.POLAR>
0

>  <SCORE.INTER.ROT>
3

>  <SCORE.INTER.SOLV>
16.6318

>  <SCORE.INTER.VDW>
-12.2315

>  <SCORE.INTER.norm>
-0.074153

>  <SCORE.INTRA>
-3.67878

>  <SCORE.INTRA.DIHEDRAL>
-6.75427

>  <SCORE.INTRA.DIHEDRAL.0>
7.18044

>  <SCORE.INTRA.POLAR>
0

>  <SCORE.INTRA.POLAR.0>
0

>  <SCORE.INTRA.REPUL>
0

>  <SCORE.INTRA.REPUL.0>
0

>  <SCORE.INTRA.SOLV>
-0.750148

>  <SCORE.INTRA.SOLV.lig_0>
-72.0615

>  <SCORE.INTRA.VDW>
0.0734261

>  <SCORE.INTRA.VDW.0>
-1.54792

>  <SCORE.INTRA.norm>
-0.167217

>  <SCORE.RESTR>
0

>  <SCORE.RESTR.CAVITY>
0

>  <SCORE.RESTR.norm>
0

>  <SCORE.SYSTEM>
0

>  <SCORE.SYSTEM.CONST>
0

>  <SCORE.SYSTEM.DIHEDRAL>
0

>  <SCORE.SYSTEM.SOLV>
0

>  <SCORE.SYSTEM.norm>
0

>  <SCORE.heavy>
22

>  <SCORE.norm>
-0.24137

>  <RMSD>
27.570

$$$$
lig.pdb
 OpenBabel11021811523D
libRbt.so/2013.1/901 2013/11/27
 22 23  0  0  0  0  0  0  0  0999 V2000
    6.8218  -27.9626    9.6936 C   0  0  1  0  0  0  0  0  0  0  0  0
    5.3025  -26.5910   11.1285 C   0  0  1  0  0  0  0  0  0  0  0  0
    6.1079  -25.1633   11.0826 C   0  0  1  0  0  0  0  0  0  0  0  0
    5.6481  -24.3060   12.3667 C   0  0  2  0  0  0  0  0  0  0  0  0
    6.8743  -29.0861    8.5626 C   0  0  1  0  0  0  0  0  0  0  0  0
    6.2370  -30.4311    9.0882 C   0  0  2  0  0  0  0  0  0  0  0  0
    7.1012  -30.9444   10.3420 C   0  0  1  0  0  0  0  0  0  0  0  0
    7.0231  -29.8691   11.5513 C   0  0  1  0  0  0  0  0  0  0  0  0
    7.8238  -30.2890   12.8150 C   0  0  0  0  0  0  0  0  0  0  0  0
    4.0738  -24.0194   12.2199 C   0  0  1  0  0  0  0  0  0  0  0  0
    3.3183  -25.4430   12.2537 C   0  0  0  0  0  0  0  0  0  0  0  0
    3.7770  -26.3489   11.0328 C   0  0  2  0  0  0  0  0  0  0  0  0
    6.5839  -32.2077   10.8786 F   0  0  0  0  0  0  0  0  0  0  0  0
    6.1248  -28.4971    7.3580 N   0  0  0  0  0  0  0  0  0  0  0  0
    7.7176  -29.3866   13.9024 N   0  0  0  0  0  0  0  0  0  0  0  0
    3.5755  -23.2339   13.3930 N   0  0  0  0  0  0  0  0  0  0  0  0
    3.1118  -27.6481   11.0607 N   0  0  0  0  0  0  0  0  0  0  0  0
    5.6076  -27.4187   10.0289 O   0  0  0  0  0  0  0  0  0  0  0  0
    7.5714  -25.4518   11.1875 O   0  0  0  0  0  0  0  0  0  0  0  0
    6.3240  -23.0946   12.3343 O   0  0  0  0  0  0  0  0  0  0  0  0
    6.3076  -31.2221    8.2194 O   0  0  0  0  0  0  0  0  0  0  0  0
    7.5406  -28.4993   10.9731 O   0  0  0  0  0  0  0  0  0  0  0  0
  1  5  1  0  0  0  0
  1 18  1  1  0  0  0
  2 18  1  6  0  0  0
  2  3  1  0  0  0  0
  2 12  1  0  0  0  0
  3 19  1  1  0  0  0
  3  4  1  0  0  0  0
  4 20  1  6  0  0  0
  4 10  1  0  0  0  0
  5  6  1  0  0  0  0
  5 14  1  6  0  0  0
  6 21  1  6  0  0  0
  7 13  1  1  0  0  0
  7  6  1  0  0  0  0
  8  9  1  1  0  0  0
  8  7  1  0  0  0  0
 10 16  1  1  0  0  0
 11 10  1  0  0  0  0
 12 17  1  1  0  0  0
 12 11  1  0  0  0  0
 15  9  1  0  0  0  0
 22  8  1  0  0  0  0
 22  1  1  0  0  0  0
M  END
>  <CHROM.1>
168.65933589,62.89354049,-177.37936171,5.97004054,-27.65890651,10.96957736
1.01333769,0.99699052,-2.32399323

>  <Name>
lig.pdb

>  <RI>
0

>  <Rbt.Current_Directory>
/home/itssahil/PROJECTS/Mol_Feturizer/New_Systems/rnas/5bxk

>  <Rbt.Executable>
rbdock ($Id: //depot/dev/client3/rdock/2013.1/src/exe/rbdock.cxx#4 $)

>  <Rbt.Library>
libRbt.so (2013.1, Build901 2013/11/27)

>  <Rbt.Parameter_File>
/export/apps/rDock/src/rDock_2013.1_src/data/scripts/dock_solv.prm

>  <Rbt.Receptor>
prm/blind_docking_60.prm

>  <SCORE>
-6.41844

>  <SCORE.INTER>
-2.34327

>  <SCORE.INTER.CONST>
1

>  <SCORE.INTER.POLAR>
0

>  <SCORE.INTER.ROT>
3

>  <SCORE.INTER.SOLV>
14.1638

>  <SCORE.INTER.VDW>
-11.8834

>  <SCORE.INTER.norm>
-0.106512

>  <SCORE.INTRA>
-4.07517

>  <SCORE.INTRA.DIHEDRAL>
-6.3852

>  <SCORE.INTRA.DIHEDRAL.0>
7.18044

>  <SCORE.INTRA.POLAR>
0

>  <SCORE.INTRA.POLAR.0>
0

>  <SCORE.INTRA.REPUL>
0

>  <SCORE.INTRA.REPUL.0>
0

>  <SCORE.INTRA.SOLV>
-1.78995

>  <SCORE.INTRA.SOLV.lig_0>
-72.0615

>  <SCORE.INTRA.VDW>
0.0124053

>  <SCORE.INTRA.VDW.0>
-1.54792

>  <SCORE.INTRA.norm>
-0.185235

>  <SCORE.RESTR>
0

>  <SCORE.RESTR.CAVITY>
0

>  <SCORE.RESTR.norm>
0

>  <SCORE.SYSTEM>
0

>  <SCORE.SYSTEM.CONST>
0

>  <SCORE.SYSTEM.DIHEDRAL>
0

>  <SCORE.SYSTEM.SOLV>
0

>  <SCORE.SYSTEM.norm>
0

>  <SCORE.heavy>
22

>  <SCORE.norm>
-0.291747

>  <RMSD>
27.592

$$$$
lig.pdb
 OpenBabel11021811523D
libRbt.so/2013.1/901 2013/11/27
 22 23  0  0  0  0  0  0  0  0999 V2000
    6.9044  -28.0689    9.7234 C   0  0  1  0  0  0  0  0  0  0  0  0
    5.3597  -26.6648   11.0984 C   0  0  1  0  0  0  0  0  0  0  0  0
    6.1902  -25.2511   11.0657 C   0  0  1  0  0  0  0  0  0  0  0  0
    5.7027  -24.3733   12.3254 C   0  0  2  0  0  0  0  0  0  0  0  0
    6.9818  -29.1846    8.5861 C   0  0  1  0  0  0  0  0  0  0  0  0
    6.3046  -30.5233    9.0767 C   0  0  2  0  0  0  0  0  0  0  0  0
    7.1134  -31.0595   10.3576 C   0  0  1  0  0  0  0  0  0  0  0  0
    7.0068  -29.9922   11.5719 C   0  0  1  0  0  0  0  0  0  0  0  0
    7.7532  -30.4341   12.8611 C   0  0  0  0  0  0  0  0  0  0  0  0
    4.1392  -24.0622   12.1236 C   0  0  1  0  0  0  0  0  0  0  0  0
    3.3590  -25.4726   12.1459 C   0  0  0  0  0  0  0  0  0  0  0  0
    3.8426  -26.3984   10.9496 C   0  0  2  0  0  0  0  0  0  0  0  0
    6.5570  -32.3185   10.8644 F   0  0  0  0  0  0  0  0  0  0  0  0
    6.2871  -28.5749    7.3593 N   0  0  0  0  0  0  0  0  0  0  0  0
    7.6149  -29.5416   13.9530 N   0  0  0  0  0  0  0  0  0  0  0  0
    3.6157  -23.2566   13.2718 N   0  0  0  0  0  0  0  0  0  0  0  0
    3.1549  -27.6860   10.9679 N   0  0  0  0  0  0  0  0  0  0  0  0
    5.6871  -27.5086   10.0176 O   0  0  0  0  0  0  0  0  0  0  0  0
    7.6444  -25.5628   11.2220 O   0  0  0  0  0  0  0  0  0  0  0  0
    6.3998  -23.1737   12.3040 O   0  0  0  0  0  0  0  0  0  0  0  0
    6.3955  -31.3087    8.2048 O   0  0  0  0  0  0  0  0  0  0  0  0
    7.5666  -28.6265   11.0244 O   0  0  0  0  0  0  0  0  0  0  0  0
  1  5  1  0  0  0  0
  1 18  1  1  0  0  0
  2 18  1  6  0  0  0
  2  3  1  0  0  0  0
  2 12  1  0  0  0  0
  3 19  1  1  0  0  0
  3  4  1  0  0  0  0
  4 20  1  6  0  0  0
  4 10  1  0  0  0  0
  5  6  1  0  0  0  0
  5 14  1  6  0  0  0
  6 21  1  6  0  0  0
  7 13  1  1  0  0  0
  7  6  1  0  0  0  0
  8  9  1  1  0  0  0
  8  7  1  0  0  0  0
 10 16  1  1  0  0  0
 11 10  1  0  0  0  0
 12 17  1  1  0  0  0
 12 11  1  0  0  0  0
 15  9  1  0  0  0  0
 22  8  1  0  0  0  0
 22  1  1  0  0  0  0
M  END
>  <CHROM.1>
169.92028699,62.43183545,-177.08635254,6.01500302,-27.74737224,10.95232356
0.97354936,1.04390163,-2.29078229

>  <Name>
lig.pdb

>  <RI>
0

>  <Rbt.Current_Directory>
/home/itssahil/PROJECTS/Mol_Feturizer/New_Systems/rnas/5bxk

>  <Rbt.Executable>
rbdock ($Id: //depot/dev/client3/rdock/2013.1/src/exe/rbdock.cxx#4 $)

>  <Rbt.Library>
libRbt.so (2013.1, Build901 2013/11/27)

>  <Rbt.Parameter_File>
/export/apps/rDock/src/rDock_2013.1_src/data/scripts/dock_solv.prm

>  <Rbt.Receptor>
prm/blind_docking_80.prm

>  <SCORE>
-6.42644

>  <SCORE.INTER>
-2.30463

>  <SCORE.INTER.CONST>
1

>  <SCORE.INTER.POLAR>
0

>  <SCORE.INTER.ROT>
3

>  <SCORE.INTER.SOLV>
14.3744

>  <SCORE.INTER.VDW>
-11.9279

>  <SCORE.INTER.norm>
-0.104756

>  <SCORE.INTRA>
-4.12181

>  <SCORE.INTRA.DIHEDRAL>
-6.51306

>  <SCORE.INTRA.DIHEDRAL.0>
7.18044

>  <SCORE.INTRA.POLAR>
0

>  <SCORE.INTRA.POLAR.0>
0

>  <SCORE.INTRA.REPUL>
0

>  <SCORE.INTRA.REPUL.0>
0

>  <SCORE.INTRA.SOLV>
-1.80443

>  <SCORE.INTRA.SOLV.lig_0>
-72.0615

>  <SCORE.INTRA.VDW>
0.036931

>  <SCORE.INTRA.VDW.0>
-1.54792

>  <SCORE.INTRA.norm>
-0.187355

>  <SCORE.RESTR>
0

>  <SCORE.RESTR.CAVITY>
0

>  <SCORE.RESTR.norm>
0

>  <SCORE.SYSTEM>
0

>  <SCORE.SYSTEM.CONST>
0

>  <SCORE.SYSTEM.DIHEDRAL>
0

>  <SCORE.SYSTEM.SOLV>
0

>  <SCORE.SYSTEM.norm>
0

>  <SCORE.heavy>
22

>  <SCORE.norm>
-0.292111

>  <RMSD>
27.644

$$$$
lig.pdb
 OpenBabel11021811523D
libRbt.so/2013.1/901 2013/11/27
 22 23  0  0  0  0  0  0  0  0999 V2000
    3.3722  -27.5531   13.7549 C   0  0  1  0  0  0  0  0  0  0  0  0
    3.7323  -27.0509   11.3328 C   0  0  1  0  0  0  0  0  0  0  0  0
    2.5225  -27.9798   10.7305 C   0  0  1  0  0  0  0  0  0  0  0  0
    2.8592  -28.2700    9.1822 C   0  0  2  0  0  0  0  0  0  0  0  0
    3.3339  -26.9330   15.2239 C   0  0  1  0  0  0  0  0  0  0  0  0
    4.7632  -26.4094   15.6414 C   0  0  2  0  0  0  0  0  0  0  0  0
    5.7757  -27.6572   15.6528 C   0  0  1  0  0  0  0  0  0  0  0  0
    5.9073  -28.2827   14.1640 C   0  0  1  0  0  0  0  0  0  0  0  0
    6.8786  -29.4924   14.0769 C   0  0  0  0  0  0  0  0  0  0  0  0
    2.8623  -26.8588    8.4138 C   0  0  1  0  0  0  0  0  0  0  0  0
    4.0513  -25.9695    9.0415 C   0  0  0  0  0  0  0  0  0  0  0  0
    3.7919  -25.6976   10.5844 C   0  0  2  0  0  0  0  0  0  0  0  0
    7.1286  -27.2565   16.0534 F   0  0  0  0  0  0  0  0  0  0  0  0
    2.2769  -25.8193   15.1764 N   0  0  0  0  0  0  0  0  0  0  0  0
    6.9983  -30.0554   12.7820 N   0  0  0  0  0  0  0  0  0  0  0  0
    3.1834  -27.0549    6.9648 N   0  0  0  0  0  0  0  0  0  0  0  0
    4.8704  -24.9063   11.1692 N   0  0  0  0  0  0  0  0  0  0  0  0
    3.5283  -26.7084   12.6850 O   0  0  0  0  0  0  0  0  0  0  0  0
    2.5144  -29.2745   11.4788 O   0  0  0  0  0  0  0  0  0  0  0  0
    1.8386  -29.0545    8.6641 O   0  0  0  0  0  0  0  0  0  0  0  0
    4.6777  -25.9703   16.7301 O   0  0  0  0  0  0  0  0  0  0  0  0
    4.4533  -28.6805   13.7102 O   0  0  0  0  0  0  0  0  0  0  0  0
  1  5  1  0  0  0  0
  1 18  1  6  0  0  0
  2 18  1  1  0  0  0
  2  3  1  0  0  0  0
  2 12  1  0  0  0  0
  3 19  1  1  0  0  0
  3  4  1  0  0  0  0
  4 20  1  6  0  0  0
  4 10  1  0  0  0  0
  5  6  1  0  0  0  0
  5 14  1  6  0  0  0
  6 21  1  1  0  0  0
  7 13  1  6  0  0  0
  7  6  1  0  0  0  0
  8  9  1  1  0  0  0
  8  7  1  0  0  0  0
 10 16  1  6  0  0  0
 11 10  1  0  0  0  0
 12 17  1  1  0  0  0
 12 11  1  0  0  0  0
 15  9  1  0  0  0  0
 22  8  1  0  0  0  0
 22  1  1  0  0  0  0
M  END
>  <CHROM.1>
172.49761276,58.38872366,179.64783996,4.18289112,-27.42500978,12.48249398
1.00957342,-0.83945276,1.11688882

>  <Name>
lig.pdb

>  <RI>
0

>  <Rbt.Current_Directory>
/home/itssahil/PROJECTS/Mol_Feturizer/New_Systems/rnas/5bxk

>  <Rbt.Executable>
rbdock ($Id: //depot/dev/client3/rdock/2013.1/src/exe/rbdock.cxx#4 $)

>  <Rbt.Library>
libRbt.so (2013.1, Build901 2013/11/27)

>  <Rbt.Parameter_File>
/export/apps/rDock/src/rDock_2013.1_src/data/scripts/dock_solv.prm

>  <Rbt.Receptor>
prm/blind_docking_60.prm

>  <SCORE>
-5.72278

>  <SCORE.INTER>
-1.50643

>  <SCORE.INTER.CONST>
1

>  <SCORE.INTER.POLAR>
0

>  <SCORE.INTER.ROT>
3

>  <SCORE.INTER.SOLV>
9.52975

>  <SCORE.INTER.VDW>
-9.78087

>  <SCORE.INTER.norm>
-0.0684741

>  <SCORE.INTRA>
-4.21635

>  <SCORE.INTRA.DIHEDRAL>
-6.76787

>  <SCORE.INTRA.DIHEDRAL.0>
7.18044

>  <SCORE.INTRA.POLAR>
0

>  <SCORE.INTRA.POLAR.0>
0

>  <SCORE.INTRA.REPUL>
0

>  <SCORE.INTRA.REPUL.0>
0

>  <SCORE.INTRA.SOLV>
-1.7954

>  <SCORE.INTRA.SOLV.lig_0>
-72.0615

>  <SCORE.INTRA.VDW>
0.0652853

>  <SCORE.INTRA.VDW.0>
-1.54792

>  <SCORE.INTRA.norm>
-0.191652

>  <SCORE.RESTR>
0

>  <SCORE.RESTR.CAVITY>
0

>  <SCORE.RESTR.norm>
0

>  <SCORE.SYSTEM>
0

>  <SCORE.SYSTEM.CONST>
0

>  <SCORE.SYSTEM.DIHEDRAL>
0

>  <SCORE.SYSTEM.SOLV>
0

>  <SCORE.SYSTEM.norm>
0

>  <SCORE.heavy>
22

>  <SCORE.norm>
-0.260126

>  <RMSD>
27.802

$$$$
lig.pdb
 OpenBabel11021811523D
libRbt.so/2013.1/901 2013/11/27
 22 23  0  0  0  0  0  0  0  0999 V2000
    3.2875  -27.5570   13.8087 C   0  0  1  0  0  0  0  0  0  0  0  0
    3.6465  -27.0913   11.3791 C   0  0  1  0  0  0  0  0  0  0  0  0
    2.4597  -28.0533   10.7830 C   0  0  1  0  0  0  0  0  0  0  0  0
    2.8157  -28.3644    9.2431 C   0  0  2  0  0  0  0  0  0  0  0  0
    3.2139  -26.9093   15.2644 C   0  0  1  0  0  0  0  0  0  0  0  0
    4.6202  -26.3277   15.6834 C   0  0  2  0  0  0  0  0  0  0  0  0
    5.6754  -27.5388   15.7289 C   0  0  1  0  0  0  0  0  0  0  0  0
    5.8425  -28.1889   14.2543 C   0  0  1  0  0  0  0  0  0  0  0  0
    6.8562  -29.3654   14.2002 C   0  0  0  0  0  0  0  0  0  0  0  0
    2.7994  -26.9671    8.4498 C   0  0  1  0  0  0  0  0  0  0  0  0
    3.9659  -26.0447    9.0718 C   0  0  0  0  0  0  0  0  0  0  0  0
    3.6876  -25.7506   10.6074 C   0  0  2  0  0  0  0  0  0  0  0  0
    7.0097  -27.0829   16.1328 F   0  0  0  0  0  0  0  0  0  0  0  0
    2.1192  -25.8346   15.1852 N   0  0  0  0  0  0  0  0  0  0  0  0
    7.0195  -29.9390   12.9147 N   0  0  0  0  0  0  0  0  0  0  0  0
    3.1372  -27.1827    7.0073 N   0  0  0  0  0  0  0  0  0  0  0  0
    4.7458  -24.9290   11.1873 N   0  0  0  0  0  0  0  0  0  0  0  0
    3.4239  -26.7290   12.7232 O   0  0  0  0  0  0  0  0  0  0  0  0
    2.4689  -29.3346   11.5541 O   0  0  0  0  0  0  0  0  0  0  0  0
    1.8146  -29.1769    8.7302 O   0  0  0  0  0  0  0  0  0  0  0  0
    4.5093  -25.8701   16.7622 O   0  0  0  0  0  0  0  0  0  0  0  0
    4.4076  -28.6465   13.7962 O   0  0  0  0  0  0  0  0  0  0  0  0
  1  5  1  0  0  0  0
  1 18  1  6  0  0  0
  2 18  1  1  0  0  0
  2  3  1  0  0  0  0
  2 12  1  0  0  0  0
  3 19  1  1  0  0  0
  3  4  1  0  0  0  0
  4 20  1  6  0  0  0
  4 10  1  0  0  0  0
  5  6  1  0  0  0  0
  5 14  1  6  0  0  0
  6 21  1  1  0  0  0
  7 13  1  6  0  0  0
  7  6  1  0  0  0  0
  8  9  1  1  0  0  0
  8  7  1  0  0  0  0
 10 16  1  6  0  0  0
 11 10  1  0  0  0  0
 12 17  1  1  0  0  0
 12 11  1  0  0  0  0
 15  9  1  0  0  0  0
 22  8  1  0  0  0  0
 22  1  1  0  0  0  0
M  END
>  <CHROM.1>
172.80108475,59.11327315,-179.62101030,4.10105426,-27.42021352,12.54009903
1.04817707,-0.79734819,1.13293582

>  <Name>
lig.pdb

>  <RI>
0

>  <Rbt.Current_Directory>
/home/itssahil/PROJECTS/Mol_Feturizer/New_Systems/rnas/5bxk

>  <Rbt.Executable>
rbdock ($Id: //depot/dev/client3/rdock/2013.1/src/exe/rbdock.cxx#4 $)

>  <Rbt.Library>
libRbt.so (2013.1, Build901 2013/11/27)

>  <Rbt.Parameter_File>
/export/apps/rDock/src/rDock_2013.1_src/data/scripts/dock_solv.prm

>  <Rbt.Receptor>
prm/blind_docking_40.prm

>  <SCORE>
-5.81702

>  <SCORE.INTER>
-1.56879

>  <SCORE.INTER.CONST>
1

>  <SCORE.INTER.POLAR>
0

>  <SCORE.INTER.ROT>
3

>  <SCORE.INTER.SOLV>
9.45493

>  <SCORE.INTER.VDW>
-9.7975

>  <SCORE.INTER.norm>
-0.0713087

>  <SCORE.INTRA>
-4.24823

>  <SCORE.INTRA.DIHEDRAL>
-6.79725

>  <SCORE.INTRA.DIHEDRAL.0>
7.18044

>  <SCORE.INTRA.POLAR>
0

>  <SCORE.INTRA.POLAR.0>
0

>  <SCORE.INTRA.REPUL>
0

>  <SCORE.INTRA.REPUL.0>
0

>  <SCORE.INTRA.SOLV>
-1.81328

>  <SCORE.INTRA.SOLV.lig_0>
-72.0615

>  <SCORE.INTRA.VDW>
0.0570344

>  <SCORE.INTRA.VDW.0>
-1.54792

>  <SCORE.INTRA.norm>
-0.193101

>  <SCORE.RESTR>
0

>  <SCORE.RESTR.CAVITY>
0

>  <SCORE.RESTR.norm>
0

>  <SCORE.SYSTEM>
0

>  <SCORE.SYSTEM.CONST>
0

>  <SCORE.SYSTEM.DIHEDRAL>
0

>  <SCORE.SYSTEM.SOLV>
0

>  <SCORE.SYSTEM.norm>
0

>  <SCORE.heavy>
22

>  <SCORE.norm>
-0.26441

>  <RMSD>
27.819

$$$$
lig.pdb
 OpenBabel11021811523D
libRbt.so/2013.1/901 2013/11/27
 22 23  0  0  0  0  0  0  0  0999 V2000
    4.3888  -26.3845    9.9646 C   0  0  1  0  0  0  0  0  0  0  0  0
    3.2317  -26.7523   12.1496 C   0  0  1  0  0  0  0  0  0  0  0  0
    2.4362  -25.3394   12.3950 C   0  0  1  0  0  0  0  0  0  0  0  0
    2.1894  -25.1912   13.9801 C   0  0  2  0  0  0  0  0  0  0  0  0
    4.4794  -26.8376    8.4380 C   0  0  1  0  0  0  0  0  0  0  0  0
    5.1155  -28.2777    8.3246 C   0  0  2  0  0  0  0  0  0  0  0  0
    6.6080  -28.2197    8.9172 C   0  0  1  0  0  0  0  0  0  0  0  0
    6.5693  -27.8322   10.4899 C   0  0  1  0  0  0  0  0  0  0  0  0
    7.9732  -27.7633   11.1523 C   0  0  0  0  0  0  0  0  0  0  0  0
    1.2438  -26.4064   14.4393 C   0  0  1  0  0  0  0  0  0  0  0  0
    2.0509  -27.7754   14.1696 C   0  0  0  0  0  0  0  0  0  0  0  0
    2.3650  -27.9441   12.6221 C   0  0  2  0  0  0  0  0  0  0  0  0
    7.2795  -29.5208    8.8289 F   0  0  0  0  0  0  0  0  0  0  0  0
    3.0420  -26.7721    7.9001 N   0  0  0  0  0  0  0  0  0  0  0  0
    7.9494  -27.6416   12.5640 N   0  0  0  0  0  0  0  0  0  0  0  0
    0.9840  -26.3369   15.9121 N   0  0  0  0  0  0  0  0  0  0  0  0
    3.1104  -29.1729   12.3659 N   0  0  0  0  0  0  0  0  0  0  0  0
    3.4789  -27.0028   10.7845 O   0  0  0  0  0  0  0  0  0  0  0  0
    3.3176  -24.2235   11.9323 O   0  0  0  0  0  0  0  0  0  0  0  0
    1.5145  -23.9982   14.1963 O   0  0  0  0  0  0  0  0  0  0  0  0
    5.1631  -28.5571    7.1822 O   0  0  0  0  0  0  0  0  0  0  0  0
    5.8156  -26.4543   10.5981 O   0  0  0  0  0  0  0  0  0  0  0  0
  1  5  1  0  0  0  0
  1 18  1  1  0  0  0
  2 18  1  6  0  0  0
  2  3  1  0  0  0  0
  2 12  1  0  0  0  0
  3 19  1  1  0  0  0
  3  4  1  0  0  0  0
  4 20  1  6  0  0  0
  4 10  1  0  0  0  0
  5  6  1  0  0  0  0
  5 14  1  1  0  0  0
  6 21  1  6  0  0  0
  7 13  1  1  0  0  0
  7  6  1  0  0  0  0
  8  9  1  6  0  0  0
  8  7  1  0  0  0  0
 10 16  1  1  0  0  0
 11 10  1  0  0  0  0
 12 17  1  1  0  0  0
 12 11  1  0  0  0  0
 15  9  1  0  0  0  0
 22  8  1  0  0  0  0
 22  1  1  0  0  0  0
M  END
>  <CHROM.1>
-179.58917256,73.02817851,-170.25331362,4.15531450,-27.03059580,11.28494474
0.81041287,0.45016157,-1.61060606

>  <Name>
lig.pdb

>  <RI>
0

>  <Rbt.Current_Directory>
/home/itssahil/PROJECTS/Mol_Feturizer/New_Systems/rnas/5bxk

>  <Rbt.Executable>
rbdock ($Id: //depot/dev/client3/rdock/2013.1/src/exe/rbdock.cxx#4 $)

>  <Rbt.Library>
libRbt.so (2013.1, Build901 2013/11/27)

>  <Rbt.Parameter_File>
/export/apps/rDock/src/rDock_2013.1_src/data/scripts/dock_solv.prm

>  <Rbt.Receptor>
prm/blind_docking_40.prm

>  <SCORE>
-5.94755

>  <SCORE.INTER>
-2.17256

>  <SCORE.INTER.CONST>
1

>  <SCORE.INTER.POLAR>
0

>  <SCORE.INTER.ROT>
3

>  <SCORE.INTER.SOLV>
14.9291

>  <SCORE.INTER.VDW>
-12.0247

>  <SCORE.INTER.norm>
-0.098753

>  <SCORE.INTRA>
-3.77498

>  <SCORE.INTRA.DIHEDRAL>
-5.90042

>  <SCORE.INTRA.DIHEDRAL.0>
7.18044

>  <SCORE.INTRA.POLAR>
0

>  <SCORE.INTRA.POLAR.0>
0

>  <SCORE.INTRA.REPUL>
0

>  <SCORE.INTRA.REPUL.0>
0

>  <SCORE.INTRA.SOLV>
-1.62779

>  <SCORE.INTRA.SOLV.lig_0>
-72.0615

>  <SCORE.INTRA.VDW>
-0.0108752

>  <SCORE.INTRA.VDW.0>
-1.54792

>  <SCORE.INTRA.norm>
-0.17159

>  <SCORE.RESTR>
0

>  <SCORE.RESTR.CAVITY>
0

>  <SCORE.RESTR.norm>
0

>  <SCORE.SYSTEM>
0

>  <SCORE.SYSTEM.CONST>
0

>  <SCORE.SYSTEM.DIHEDRAL>
0

>  <SCORE.SYSTEM.SOLV>
0

>  <SCORE.SYSTEM.norm>
0

>  <SCORE.heavy>
22

>  <SCORE.norm>
-0.270343

>  <RMSD>
27.946

$$$$
lig.pdb
 OpenBabel11021811523D
libRbt.so/2013.1/901 2013/11/27
 22 23  0  0  0  0  0  0  0  0999 V2000
    6.9112  -28.2731    9.4665 C   0  0  1  0  0  0  0  0  0  0  0  0
    5.3132  -26.9331   10.8446 C   0  0  1  0  0  0  0  0  0  0  0  0
    6.0659  -25.4762   10.8492 C   0  0  1  0  0  0  0  0  0  0  0  0
    5.5356  -24.6608   12.1334 C   0  0  2  0  0  0  0  0  0  0  0  0
    7.0496  -29.2753    8.2334 C   0  0  1  0  0  0  0  0  0  0  0  0
    6.3347  -30.6462    8.5511 C   0  0  2  0  0  0  0  0  0  0  0  0
    7.0607  -31.3132    9.8201 C   0  0  1  0  0  0  0  0  0  0  0  0
    6.8881  -30.3662   11.1233 C   0  0  1  0  0  0  0  0  0  0  0  0
    7.5521  -30.9393   12.4059 C   0  0  0  0  0  0  0  0  0  0  0  0
    3.9569  -24.4294   11.9428 C   0  0  1  0  0  0  0  0  0  0  0  0
    3.2542  -25.8800   11.9277 C   0  0  0  0  0  0  0  0  0  0  0  0
    3.7834  -26.7453   10.7057 C   0  0  2  0  0  0  0  0  0  0  0  0
    6.4659  -32.6078   10.1688 F   0  0  0  0  0  0  0  0  0  0  0  0
    6.4346  -28.5418    7.0320 N   0  0  0  0  0  0  0  0  0  0  0  0
    7.3469  -30.1585   13.5706 N   0  0  0  0  0  0  0  0  0  0  0  0
    3.3942  -23.6850   13.1135 N   0  0  0  0  0  0  0  0  0  0  0  0
    3.1664  -28.0683   10.6898 N   0  0  0  0  0  0  0  0  0  0  0  0
    5.6822  -27.7282    9.7405 O   0  0  0  0  0  0  0  0  0  0  0  0
    7.5353  -25.7129   10.9945 O   0  0  0  0  0  0  0  0  0  0  0  0
    6.1667  -23.4251   12.1436 O   0  0  0  0  0  0  0  0  0  0  0  0
    6.4727  -31.3454    7.6144 O   0  0  0  0  0  0  0  0  0  0  0  0
    7.4896  -28.9614   10.7447 O   0  0  0  0  0  0  0  0  0  0  0  0
  1  5  1  0  0  0  0
  1 18  1  1  0  0  0
  2 18  1  6  0  0  0
  2  3  1  0  0  0  0
  2 12  1  0  0  0  0
  3 19  1  1  0  0  0
  3  4  1  0  0  0  0
  4 20  1  6  0  0  0
  4 10  1  0  0  0  0
  5  6  1  0  0  0  0
  5 14  1  6  0  0  0
  6 21  1  6  0  0  0
  7 13  1  1  0  0  0
  7  6  1  0  0  0  0
  8  9  1  1  0  0  0
  8  7  1  0  0  0  0
 10 16  1  1  0  0  0
 11 10  1  0  0  0  0
 12 17  1  1  0  0  0
 12 11  1  0  0  0  0
 15  9  1  0  0  0  0
 22  8  1  0  0  0  0
 22  1  1  0  0  0  0
M  END
>  <CHROM.1>
173.30422672,66.25715470,-176.69763128,5.93642514,-28.02440524,10.61702424
0.66765477,1.18279124,-1.91439917

>  <Name>
lig.pdb

>  <RI>
0

>  <Rbt.Current_Directory>
/home/itssahil/PROJECTS/Mol_Feturizer/New_Systems/rnas/5bxk

>  <Rbt.Executable>
rbdock ($Id: //depot/dev/client3/rdock/2013.1/src/exe/rbdock.cxx#4 $)

>  <Rbt.Library>
libRbt.so (2013.1, Build901 2013/11/27)

>  <Rbt.Parameter_File>
/export/apps/rDock/src/rDock_2013.1_src/data/scripts/dock_solv.prm

>  <Rbt.Receptor>
prm/blind_docking_80.prm

>  <SCORE>
-6.19474

>  <SCORE.INTER>
-2.02447

>  <SCORE.INTER.CONST>
1

>  <SCORE.INTER.POLAR>
0

>  <SCORE.INTER.ROT>
3

>  <SCORE.INTER.SOLV>
13.9502

>  <SCORE.INTER.VDW>
-11.5997

>  <SCORE.INTER.norm>
-0.0920213

>  <SCORE.INTRA>
-4.17027

>  <SCORE.INTRA.DIHEDRAL>
-6.60269

>  <SCORE.INTRA.DIHEDRAL.0>
7.18044

>  <SCORE.INTRA.POLAR>
0

>  <SCORE.INTRA.POLAR.0>
0

>  <SCORE.INTRA.REPUL>
0

>  <SCORE.INTRA.REPUL.0>
0

>  <SCORE.INTRA.SOLV>
-1.75351

>  <SCORE.INTRA.SOLV.lig_0>
-72.0615

>  <SCORE.INTRA.VDW>
0.00782736

>  <SCORE.INTRA.VDW.0>
-1.54792

>  <SCORE.INTRA.norm>
-0.189558

>  <SCORE.RESTR>
0

>  <SCORE.RESTR.CAVITY>
0

>  <SCORE.RESTR.norm>
0

>  <SCORE.SYSTEM>
0

>  <SCORE.SYSTEM.CONST>
0

>  <SCORE.SYSTEM.DIHEDRAL>
0

>  <SCORE.SYSTEM.SOLV>
0

>  <SCORE.SYSTEM.norm>
0

>  <SCORE.heavy>
22

>  <SCORE.norm>
-0.281579

>  <RMSD>
28.056

$$$$
lig.pdb
 OpenBabel11021811523D
libRbt.so/2013.1/901 2013/11/27
 22 23  0  0  0  0  0  0  0  0999 V2000
    7.1494  -28.6718    9.2603 C   0  0  1  0  0  0  0  0  0  0  0  0
    5.6524  -27.0366   10.4152 C   0  0  1  0  0  0  0  0  0  0  0  0
    6.8129  -25.9406   10.7907 C   0  0  1  0  0  0  0  0  0  0  0  0
    6.2449  -25.0240   11.9875 C   0  0  2  0  0  0  0  0  0  0  0  0
    7.2165  -29.7771    8.1123 C   0  0  1  0  0  0  0  0  0  0  0  0
    6.2132  -30.9562    8.4194 C   0  0  2  0  0  0  0  0  0  0  0  0
    6.6518  -31.6463    9.8028 C   0  0  1  0  0  0  0  0  0  0  0  0
    6.5329  -30.5830   11.0193 C   0  0  1  0  0  0  0  0  0  0  0  0
    6.9283  -31.1683   12.4033 C   0  0  0  0  0  0  0  0  0  0  0  0
    4.9548  -24.2445   11.4307 C   0  0  1  0  0  0  0  0  0  0  0  0
    3.8442  -25.3520   11.0587 C   0  0  0  0  0  0  0  0  0  0  0  0
    4.3771  -26.3165    9.9151 C   0  0  2  0  0  0  0  0  0  0  0  0
    5.7774  -32.7714   10.1508 F   0  0  0  0  0  0  0  0  0  0  0  0
    6.8920  -29.0377    6.8055 N   0  0  0  0  0  0  0  0  0  0  0  0
    6.8895  -30.2333   13.4674 N   0  0  0  0  0  0  0  0  0  0  0  0
    4.3659  -23.3799   12.5017 N   0  0  0  0  0  0  0  0  0  0  0  0
    3.3864  -27.3350    9.5799 N   0  0  0  0  0  0  0  0  0  0  0  0
    6.0313  -27.8819    9.3525 O   0  0  0  0  0  0  0  0  0  0  0  0
    8.0158  -26.6852   11.2755 O   0  0  0  0  0  0  0  0  0  0  0  0
    7.2209  -24.0919   12.3102 O   0  0  0  0  0  0  0  0  0  0  0  0
    6.3087  -31.7413    7.5478 O   0  0  0  0  0  0  0  0  0  0  0  0
    7.4389  -29.3538   10.6362 O   0  0  0  0  0  0  0  0  0  0  0  0
  1  5  1  0  0  0  0
  1 18  1  1  0  0  0
  2 18  1  6  0  0  0
  2  3  1  0  0  0  0
  2 12  1  0  0  0  0
  3 19  1  1  0  0  0
  3  4  1  0  0  0  0
  4 20  1  6  0  0  0
  4 10  1  0  0  0  0
  5  6  1  0  0  0  0
  5 14  1  6  0  0  0
  6 21  1  6  0  0  0
  7 13  1  1  0  0  0
  7  6  1  0  0  0  0
  8  9  1  1  0  0  0
  8  7  1  0  0  0  0
 10 16  1  1  0  0  0
 11 10  1  0  0  0  0
 12 17  1  1  0  0  0
 12 11  1  0  0  0  0
 15  9  1  0  0  0  0
 22  8  1  0  0  0  0
 22  1  1  0  0  0  0
M  END
>  <CHROM.1>
166.93007388,55.54901862,177.19158437,6.15247955,-28.21821266,10.37467505
1.13533002,1.20704341,-2.40640633

>  <Name>
lig.pdb

>  <RI>
0

>  <Rbt.Current_Directory>
/home/itssahil/PROJECTS/Mol_Feturizer/New_Systems/rnas/5bxk

>  <Rbt.Executable>
rbdock ($Id: //depot/dev/client3/rdock/2013.1/src/exe/rbdock.cxx#4 $)

>  <Rbt.Library>
libRbt.so (2013.1, Build901 2013/11/27)

>  <Rbt.Parameter_File>
/export/apps/rDock/src/rDock_2013.1_src/data/scripts/dock_solv.prm

>  <Rbt.Receptor>
prm/blind_docking_40.prm

>  <SCORE>
-6.69597

>  <SCORE.INTER>
-2.89164

>  <SCORE.INTER.CONST>
1

>  <SCORE.INTER.POLAR>
0

>  <SCORE.INTER.ROT>
3

>  <SCORE.INTER.SOLV>
15.7915

>  <SCORE.INTER.VDW>
-12.7916

>  <SCORE.INTER.norm>
-0.131438

>  <SCORE.INTRA>
-3.80433

>  <SCORE.INTRA.DIHEDRAL>
-6.13947

>  <SCORE.INTRA.DIHEDRAL.0>
7.18044

>  <SCORE.INTRA.POLAR>
0

>  <SCORE.INTRA.POLAR.0>
0

>  <SCORE.INTRA.REPUL>
0

>  <SCORE.INTRA.REPUL.0>
0

>  <SCORE.INTRA.SOLV>
-1.67839

>  <SCORE.INTRA.SOLV.lig_0>
-72.0615

>  <SCORE.INTRA.VDW>
0.1046

>  <SCORE.INTRA.VDW.0>
-1.54792

>  <SCORE.INTRA.norm>
-0.172924

>  <SCORE.RESTR>
0

>  <SCORE.RESTR.CAVITY>
0

>  <SCORE.RESTR.norm>
0

>  <SCORE.SYSTEM>
0

>  <SCORE.SYSTEM.CONST>
0

>  <SCORE.SYSTEM.DIHEDRAL>
0

>  <SCORE.SYSTEM.SOLV>
0

>  <SCORE.SYSTEM.norm>
0

>  <SCORE.heavy>
22

>  <SCORE.norm>
-0.304362

>  <RMSD>
28.216

$$$$
lig.pdb
 OpenBabel11021811523D
libRbt.so/2013.1/901 2013/11/27
 22 23  0  0  0  0  0  0  0  0999 V2000
    7.1733  -28.6659    9.2278 C   0  0  1  0  0  0  0  0  0  0  0  0
    5.6750  -27.0212   10.3673 C   0  0  1  0  0  0  0  0  0  0  0  0
    6.8145  -25.9086   10.7582 C   0  0  1  0  0  0  0  0  0  0  0  0
    6.2256  -25.0140   11.9615 C   0  0  2  0  0  0  0  0  0  0  0  0
    7.2374  -29.7713    8.0797 C   0  0  1  0  0  0  0  0  0  0  0  0
    6.1996  -30.9260    8.3641 C   0  0  2  0  0  0  0  0  0  0  0  0
    6.5926  -31.6281    9.7552 C   0  0  1  0  0  0  0  0  0  0  0  0
    6.4743  -30.5634   10.9706 C   0  0  1  0  0  0  0  0  0  0  0  0
    6.8267  -31.1597   12.3616 C   0  0  0  0  0  0  0  0  0  0  0  0
    4.9240  -24.2520   11.4071 C   0  0  1  0  0  0  0  0  0  0  0  0
    3.8348  -25.3753   11.0197 C   0  0  0  0  0  0  0  0  0  0  0  0
    4.3892  -26.3189    9.8690 C   0  0  2  0  0  0  0  0  0  0  0  0
    5.6841  -32.7319   10.0832 F   0  0  0  0  0  0  0  0  0  0  0  0
    6.9580  -29.0229    6.7676 N   0  0  0  0  0  0  0  0  0  0  0  0
    6.8258  -30.2174   13.4200 N   0  0  0  0  0  0  0  0  0  0  0  0
    4.3157  -23.4084   12.4841 N   0  0  0  0  0  0  0  0  0  0  0  0
    3.4180  -27.3514    9.5198 N   0  0  0  0  0  0  0  0  0  0  0  0
    6.0730  -27.8492    9.2980 O   0  0  0  0  0  0  0  0  0  0  0  0
    8.0284  -26.6366   11.2407 O   0  0  0  0  0  0  0  0  0  0  0  0
    7.1836  -24.0680   12.2973 O   0  0  0  0  0  0  0  0  0  0  0  0
    6.2940  -31.7123    7.4934 O   0  0  0  0  0  0  0  0  0  0  0  0
    7.4176  -29.3562   10.6082 O   0  0  0  0  0  0  0  0  0  0  0  0
  1  5  1  0  0  0  0
  1 18  1  1  0  0  0
  2 18  1  6  0  0  0
  2  3  1  0  0  0  0
  2 12  1  0  0  0  0
  3 19  1  1  0  0  0
  3  4  1  0  0  0  0
  4 20  1  6  0  0  0
  4 10  1  0  0  0  0
  5  6  1  0  0  0  0
  5 14  1  6  0  0  0
  6 21  1  6  0  0  0
  7 13  1  1  0  0  0
  7  6  1  0  0  0  0
  8  9  1  1  0  0  0
  8  7  1  0  0  0  0
 10 16  1  1  0  0  0
 11 10  1  0  0  0  0
 12 17  1  1  0  0  0
 12 11  1  0  0  0  0
 15  9  1  0  0  0  0
 22  8  1  0  0  0  0
 22  1  1  0  0  0  0
M  END
>  <CHROM.1>
165.20073555,58.86255987,175.48224065,6.13598387,-28.20509316,10.33393060
1.10643569,1.24055119,-2.36667411

>  <Name>
lig.pdb

>  <RI>
0

>  <Rbt.Current_Directory>
/home/itssahil/PROJECTS/Mol_Feturizer/New_Systems/rnas/5bxk

>  <Rbt.Executable>
rbdock ($Id: //depot/dev/client3/rdock/2013.1/src/exe/rbdock.cxx#4 $)

>  <Rbt.Library>
libRbt.so (2013.1, Build901 2013/11/27)

>  <Rbt.Parameter_File>
/export/apps/rDock/src/rDock_2013.1_src/data/scripts/dock_solv.prm

>  <Rbt.Receptor>
prm/blind_docking_100.prm

>  <SCORE>
-6.67147

>  <SCORE.INTER>
-2.90242

>  <SCORE.INTER.CONST>
1

>  <SCORE.INTER.POLAR>
0

>  <SCORE.INTER.ROT>
3

>  <SCORE.INTER.SOLV>
16.0617

>  <SCORE.INTER.VDW>
-12.8888

>  <SCORE.INTER.norm>
-0.131928

>  <SCORE.INTRA>
-3.76905

>  <SCORE.INTRA.DIHEDRAL>
-5.97664

>  <SCORE.INTRA.DIHEDRAL.0>
7.18044

>  <SCORE.INTRA.POLAR>
0

>  <SCORE.INTRA.POLAR.0>
0

>  <SCORE.INTRA.REPUL>
0

>  <SCORE.INTRA.REPUL.0>
0

>  <SCORE.INTRA.SOLV>
-1.65747

>  <SCORE.INTRA.SOLV.lig_0>
-72.0615

>  <SCORE.INTRA.VDW>
0.048004

>  <SCORE.INTRA.VDW.0>
-1.54792

>  <SCORE.INTRA.norm>
-0.17132

>  <SCORE.RESTR>
0

>  <SCORE.RESTR.CAVITY>
0

>  <SCORE.RESTR.norm>
0

>  <SCORE.SYSTEM>
0

>  <SCORE.SYSTEM.CONST>
0

>  <SCORE.SYSTEM.DIHEDRAL>
0

>  <SCORE.SYSTEM.SOLV>
0

>  <SCORE.SYSTEM.norm>
0

>  <SCORE.heavy>
22

>  <SCORE.norm>
-0.303249

>  <RMSD>
28.236

$$$$
lig.pdb
 OpenBabel11021811523D
libRbt.so/2013.1/901 2013/11/27
 22 23  0  0  0  0  0  0  0  0999 V2000
    6.1766  -27.4106   10.7754 C   0  0  1  0  0  0  0  0  0  0  0  0
    6.6373  -29.8255   11.2278 C   0  0  1  0  0  0  0  0  0  0  0  0
    6.9573  -30.3585    9.7103 C   0  0  1  0  0  0  0  0  0  0  0  0
    6.6976  -31.9483    9.6903 C   0  0  2  0  0  0  0  0  0  0  0  0
    6.6700  -25.9149   11.0271 C   0  0  1  0  0  0  0  0  0  0  0  0
    6.3620  -25.4724   12.5106 C   0  0  2  0  0  0  0  0  0  0  0  0
    4.7709  -25.5168   12.7318 C   0  0  1  0  0  0  0  0  0  0  0  0
    4.2254  -27.0324   12.5576 C   0  0  1  0  0  0  0  0  0  0  0  0
    2.6920  -27.1735   12.7657 C   0  0  0  0  0  0  0  0  0  0  0  0
    7.7413  -32.6229   10.7089 C   0  0  1  0  0  0  0  0  0  0  0  0
    7.4066  -32.0650   12.1837 C   0  0  0  0  0  0  0  0  0  0  0  0
    7.5983  -30.4897   12.2427 C   0  0  2  0  0  0  0  0  0  0  0  0
    4.3981  -25.0969   14.0868 F   0  0  0  0  0  0  0  0  0  0  0  0
    8.1707  -25.9127   10.6993 N   0  0  0  0  0  0  0  0  0  0  0  0
    2.2472  -26.8599   14.0741 N   0  0  0  0  0  0  0  0  0  0  0  0
    7.5450  -34.1066   10.7496 N   0  0  0  0  0  0  0  0  0  0  0  0
    7.2825  -29.9692   13.5696 N   0  0  0  0  0  0  0  0  0  0  0  0
    6.8590  -28.4407   11.3717 O   0  0  0  0  0  0  0  0  0  0  0  0
    5.9986  -29.6959    8.7733 O   0  0  0  0  0  0  0  0  0  0  0  0
    6.9682  -32.4080    8.4093 O   0  0  0  0  0  0  0  0  0  0  0  0
    6.7397  -24.3649   12.6377 O   0  0  0  0  0  0  0  0  0  0  0  0
    4.6551  -27.5055   11.1189 O   0  0  0  0  0  0  0  0  0  0  0  0
  1  5  1  0  0  0  0
  1 18  1  1  0  0  0
  2 18  1  6  0  0  0
  2  3  1  0  0  0  0
  2 12  1  0  0  0  0
  3 19  1  6  0  0  0
  3  4  1  0  0  0  0
  4 20  1  6  0  0  0
  4 10  1  0  0  0  0
  5  6  1  0  0  0  0
  5 14  1  1  0  0  0
  6 21  1  6  0  0  0
  7 13  1  1  0  0  0
  7  6  1  0  0  0  0
  8  9  1  6  0  0  0
  8  7  1  0  0  0  0
 10 16  1  1  0  0  0
 11 10  1  0  0  0  0
 12 17  1  1  0  0  0
 12 11  1  0  0  0  0
 15  9  1  0  0  0  0
 22  8  1  0  0  0  0
 22  1  1  0  0  0  0
M  END
>  <CHROM.1>
-176.38681766,65.97352223,-63.86786060,6.09518634,-28.58303596,11.54188931
-1.99831843,-0.67478084,-3.03497305

>  <Name>
lig.pdb

>  <RI>
0

>  <Rbt.Current_Directory>
/home/itssahil/PROJECTS/Mol_Feturizer/New_Systems/rnas/5bxk

>  <Rbt.Executable>
rbdock ($Id: //depot/dev/client3/rdock/2013.1/src/exe/rbdock.cxx#4 $)

>  <Rbt.Library>
libRbt.so (2013.1, Build901 2013/11/27)

>  <Rbt.Parameter_File>
/export/apps/rDock/src/rDock_2013.1_src/data/scripts/dock_solv.prm

>  <Rbt.Receptor>
prm/blind_docking_40.prm

>  <SCORE>
-2.77819

>  <SCORE.INTER>
0.935753

>  <SCORE.INTER.CONST>
1

>  <SCORE.INTER.POLAR>
0

>  <SCORE.INTER.ROT>
3

>  <SCORE.INTER.SOLV>
14.3783

>  <SCORE.INTER.VDW>
-9.76894

>  <SCORE.INTER.norm>
0.0425342

>  <SCORE.INTRA>
-3.71394

>  <SCORE.INTRA.DIHEDRAL>
-6.75539

>  <SCORE.INTRA.DIHEDRAL.0>
7.18044

>  <SCORE.INTRA.POLAR>
0

>  <SCORE.INTRA.POLAR.0>
0

>  <SCORE.INTRA.REPUL>
0

>  <SCORE.INTRA.REPUL.0>
0

>  <SCORE.INTRA.SOLV>
-0.823003

>  <SCORE.INTRA.SOLV.lig_0>
-72.0615

>  <SCORE.INTRA.VDW>
0.0752587

>  <SCORE.INTRA.VDW.0>
-1.54792

>  <SCORE.INTRA.norm>
-0.168815

>  <SCORE.RESTR>
0

>  <SCORE.RESTR.CAVITY>
0

>  <SCORE.RESTR.norm>
0

>  <SCORE.SYSTEM>
0

>  <SCORE.SYSTEM.CONST>
0

>  <SCORE.SYSTEM.DIHEDRAL>
0

>  <SCORE.SYSTEM.SOLV>
0

>  <SCORE.SYSTEM.norm>
0

>  <SCORE.heavy>
22

>  <SCORE.norm>
-0.126281

>  <RMSD>
28.284

$$$$
lig.pdb
 OpenBabel11021811523D
libRbt.so/2013.1/901 2013/11/27
 22 23  0  0  0  0  0  0  0  0999 V2000
    3.3416  -28.6312   11.0303 C   0  0  1  0  0  0  0  0  0  0  0  0
    4.0228  -26.2764   11.5197 C   0  0  1  0  0  0  0  0  0  0  0  0
    3.5057  -26.1244   13.0685 C   0  0  1  0  0  0  0  0  0  0  0  0
    3.3074  -24.5528   13.3612 C   0  0  2  0  0  0  0  0  0  0  0  0
    3.8682  -30.1261   10.8517 C   0  0  1  0  0  0  0  0  0  0  0  0
    4.5174  -30.3179    9.4258 C   0  0  2  0  0  0  0  0  0  0  0  0
    3.3870  -30.0509    8.3152 C   0  0  1  0  0  0  0  0  0  0  0  0
    2.8663  -28.5194    8.4058 C   0  0  1  0  0  0  0  0  0  0  0  0
    1.7750  -28.1662    7.3576 C   0  0  0  0  0  0  0  0  0  0  0  0
    4.7450  -23.8485   13.2220 C   0  0  1  0  0  0  0  0  0  0  0  0
    5.2266  -24.0311   11.6945 C   0  0  0  0  0  0  0  0  0  0  0  0
    5.3880  -25.5704   11.3390 C   0  0  2  0  0  0  0  0  0  0  0  0
    3.9071  -30.2305    6.9555 F   0  0  0  0  0  0  0  0  0  0  0  0
    4.8626  -30.3554   11.9998 N   0  0  0  0  0  0  0  0  0  0  0  0
    0.6159  -28.9788    7.4223 N   0  0  0  0  0  0  0  0  0  0  0  0
    4.6303  -22.3764   13.4695 N   0  0  0  0  0  0  0  0  0  0  0  0
    5.8085  -25.7503    9.9527 N   0  0  0  0  0  0  0  0  0  0  0  0
    4.2585  -27.6185   11.1583 O   0  0  0  0  0  0  0  0  0  0  0  0
    2.1836  -26.8131   13.1866 O   0  0  0  0  0  0  0  0  0  0  0  0
    2.8715  -24.4152   14.6714 O   0  0  0  0  0  0  0  0  0  0  0  0
    4.8812  -31.4345    9.3472 O   0  0  0  0  0  0  0  0  0  0  0  0
    2.3413  -28.3061    9.8746 O   0  0  0  0  0  0  0  0  0  0  0  0
  1  5  1  0  0  0  0
  1 18  1  6  0  0  0
  2 18  1  1  0  0  0
  2  3  1  0  0  0  0
  2 12  1  0  0  0  0
  3 19  1  6  0  0  0
  3  4  1  0  0  0  0
  4 20  1  1  0  0  0
  4 10  1  0  0  0  0
  5  6  1  0  0  0  0
  5 14  1  1  0  0  0
  6 21  1  1  0  0  0
  7 13  1  6  0  0  0
  7  6  1  0  0  0  0
  8  9  1  6  0  0  0
  8  7  1  0  0  0  0
 10 16  1  6  0  0  0
 11 10  1  0  0  0  0
 12 17  1  6  0  0  0
 12 11  1  0  0  0  0
 15  9  1  0  0  0  0
 22  8  1  0  0  0  0
 22  1  1  0  0  0  0
M  END
>  <CHROM.1>
-169.72513333,66.55760705,57.88307407,3.72538193,-27.44128522,10.75885512
-1.76900574,-1.01563666,0.53191991

>  <Name>
lig.pdb

>  <RI>
0

>  <Rbt.Current_Directory>
/home/itssahil/PROJECTS/Mol_Feturizer/New_Systems/rnas/5bxk

>  <Rbt.Executable>
rbdock ($Id: //depot/dev/client3/rdock/2013.1/src/exe/rbdock.cxx#4 $)

>  <Rbt.Library>
libRbt.so (2013.1, Build901 2013/11/27)

>  <Rbt.Parameter_File>
/export/apps/rDock/src/rDock_2013.1_src/data/scripts/dock_solv.prm

>  <Rbt.Receptor>
prm/blind_docking_40.prm

>  <SCORE>
-2.65688

>  <SCORE.INTER>
0.828635

>  <SCORE.INTER.CONST>
1

>  <SCORE.INTER.POLAR>
0

>  <SCORE.INTER.ROT>
3

>  <SCORE.INTER.SOLV>
20.0543

>  <SCORE.INTER.VDW>
-11.7323

>  <SCORE.INTER.norm>
0.0376652

>  <SCORE.INTRA>
-3.48552

>  <SCORE.INTRA.DIHEDRAL>
-6.32958

>  <SCORE.INTRA.DIHEDRAL.0>
7.18044

>  <SCORE.INTRA.POLAR>
0

>  <SCORE.INTRA.POLAR.0>
0

>  <SCORE.INTRA.REPUL>
0

>  <SCORE.INTRA.REPUL.0>
0

>  <SCORE.INTRA.SOLV>
-0.60503

>  <SCORE.INTRA.SOLV.lig_0>
-72.0615

>  <SCORE.INTRA.VDW>
-0.0182105

>  <SCORE.INTRA.VDW.0>
-1.54792

>  <SCORE.INTRA.norm>
-0.158433

>  <SCORE.RESTR>
0

>  <SCORE.RESTR.CAVITY>
0

>  <SCORE.RESTR.norm>
0

>  <SCORE.SYSTEM>
0

>  <SCORE.SYSTEM.CONST>
0

>  <SCORE.SYSTEM.DIHEDRAL>
0

>  <SCORE.SYSTEM.SOLV>
0

>  <SCORE.SYSTEM.norm>
0

>  <SCORE.heavy>
22

>  <SCORE.norm>
-0.120767

>  <RMSD>
28.479

$$$$
lig.pdb
 OpenBabel11021811523D
libRbt.so/2013.1/901 2013/11/27
 22 23  0  0  0  0  0  0  0  0999 V2000
    4.0880  -30.0404   11.5381 C   0  0  1  0  0  0  0  0  0  0  0  0
    3.8396  -28.2137   13.2263 C   0  0  1  0  0  0  0  0  0  0  0  0
    2.3761  -28.6366   13.8334 C   0  0  1  0  0  0  0  0  0  0  0  0
    1.7437  -27.3285   14.5291 C   0  0  2  0  0  0  0  0  0  0  0  0
    5.1112  -31.0685   10.8746 C   0  0  1  0  0  0  0  0  0  0  0  0
    6.2507  -30.2956   10.1029 C   0  0  2  0  0  0  0  0  0  0  0  0
    5.5721  -29.4373    8.9259 C   0  0  1  0  0  0  0  0  0  0  0  0
    4.5733  -28.3252    9.5508 C   0  0  1  0  0  0  0  0  0  0  0  0
    3.8778  -27.4374    8.4820 C   0  0  0  0  0  0  0  0  0  0  0  0
    2.7091  -26.9107   15.7439 C   0  0  1  0  0  0  0  0  0  0  0  0
    4.1388  -26.5174   15.1116 C   0  0  0  0  0  0  0  0  0  0  0  0
    4.7832  -27.7635   14.3673 C   0  0  2  0  0  0  0  0  0  0  0  0
    6.5713  -28.7018    8.1435 F   0  0  0  0  0  0  0  0  0  0  0  0
    5.6451  -31.9267   12.0314 N   0  0  0  0  0  0  0  0  0  0  0  0
    3.0381  -26.4281    9.0153 N   0  0  0  0  0  0  0  0  0  0  0  0
    2.1847  -25.6874   16.4294 N   0  0  0  0  0  0  0  0  0  0  0  0
    6.0719  -27.4161   13.7759 N   0  0  0  0  0  0  0  0  0  0  0  0
    4.5032  -29.2959   12.6132 O   0  0  0  0  0  0  0  0  0  0  0  0
    1.5028  -29.0529   12.6931 O   0  0  0  0  0  0  0  0  0  0  0  0
    0.5051  -27.6785   15.0476 O   0  0  0  0  0  0  0  0  0  0  0  0
    6.9695  -31.0993    9.6309 O   0  0  0  0  0  0  0  0  0  0  0  0
    3.5196  -29.1031   10.4243 O   0  0  0  0  0  0  0  0  0  0  0  0
  1  5  1  0  0  0  0
  1 18  1  1  0  0  0
  2 18  1  1  0  0  0
  2  3  1  0  0  0  0
  2 12  1  0  0  0  0
  3 19  1  6  0  0  0
  3  4  1  0  0  0  0
  4 20  1  1  0  0  0
  4 10  1  0  0  0  0
  5  6  1  0  0  0  0
  5 14  1  1  0  0  0
  6 21  1  6  0  0  0
  7 13  1  1  0  0  0
  7  6  1  0  0  0  0
  8  9  1  6  0  0  0
  8  7  1  0  0  0  0
 10 16  1  6  0  0  0
 11 10  1  0  0  0  0
 12 17  1  6  0  0  0
 12 11  1  0  0  0  0
 15  9  1  0  0  0  0
 22  8  1  0  0  0  0
 22  1  1  0  0  0  0
M  END
>  <CHROM.1>
170.43732705,60.80082311,-177.83281583,4.08899237,-28.57824244,12.02611481
-0.83256925,-0.80141936,1.73902712

>  <Name>
lig.pdb

>  <RI>
0

>  <Rbt.Current_Directory>
/home/itssahil/PROJECTS/Mol_Feturizer/New_Systems/rnas/5bxk

>  <Rbt.Executable>
rbdock ($Id: //depot/dev/client3/rdock/2013.1/src/exe/rbdock.cxx#4 $)

>  <Rbt.Library>
libRbt.so (2013.1, Build901 2013/11/27)

>  <Rbt.Parameter_File>
/export/apps/rDock/src/rDock_2013.1_src/data/scripts/dock_solv.prm

>  <Rbt.Receptor>
prm/blind_docking_60.prm

>  <SCORE>
-3.60312

>  <SCORE.INTER>
0.568098

>  <SCORE.INTER.CONST>
1

>  <SCORE.INTER.POLAR>
0

>  <SCORE.INTER.ROT>
3

>  <SCORE.INTER.SOLV>
14.0782

>  <SCORE.INTER.VDW>
-9.914

>  <SCORE.INTER.norm>
0.0258226

>  <SCORE.INTRA>
-4.17121

>  <SCORE.INTRA.DIHEDRAL>
-6.59902

>  <SCORE.INTRA.DIHEDRAL.0>
7.18044

>  <SCORE.INTRA.POLAR>
0

>  <SCORE.INTRA.POLAR.0>
0

>  <SCORE.INTRA.REPUL>
0

>  <SCORE.INTRA.REPUL.0>
0

>  <SCORE.INTRA.SOLV>
-1.81494

>  <SCORE.INTRA.SOLV.lig_0>
-72.0615

>  <SCORE.INTRA.VDW>
0.0357677

>  <SCORE.INTRA.VDW.0>
-1.54792

>  <SCORE.INTRA.norm>
-0.189601

>  <SCORE.RESTR>
0

>  <SCORE.RESTR.CAVITY>
0

>  <SCORE.RESTR.norm>
0

>  <SCORE.SYSTEM>
0

>  <SCORE.SYSTEM.CONST>
0

>  <SCORE.SYSTEM.DIHEDRAL>
0

>  <SCORE.SYSTEM.SOLV>
0

>  <SCORE.SYSTEM.norm>
0

>  <SCORE.heavy>
22

>  <SCORE.norm>
-0.163778

>  <RMSD>
28.587

$$$$
lig.pdb
 OpenBabel11021811523D
libRbt.so/2013.1/901 2013/11/27
 22 23  0  0  0  0  0  0  0  0999 V2000
    3.7590  -28.5770   12.9607 C   0  0  1  0  0  0  0  0  0  0  0  0
    3.9182  -27.6749   10.6349 C   0  0  1  0  0  0  0  0  0  0  0  0
    2.5104  -28.3129   10.0868 C   0  0  1  0  0  0  0  0  0  0  0  0
    2.5833  -28.3371    8.4777 C   0  0  2  0  0  0  0  0  0  0  0  0
    3.9600  -28.2467   14.5082 C   0  0  1  0  0  0  0  0  0  0  0  0
    5.4891  -28.0295   14.8340 C   0  0  2  0  0  0  0  0  0  0  0  0
    6.2742  -29.3933   14.5088 C   0  0  1  0  0  0  0  0  0  0  0  0
    6.1621  -29.7390   12.9299 C   0  0  1  0  0  0  0  0  0  0  0  0
    6.9043  -31.0411   12.5199 C   0  0  0  0  0  0  0  0  0  0  0  0
    2.6947  -26.8151    7.9745 C   0  0  1  0  0  0  0  0  0  0  0  0
    4.0795  -26.2180    8.5438 C   0  0  0  0  0  0  0  0  0  0  0  0
    4.0788  -26.2203   10.1319 C   0  0  2  0  0  0  0  0  0  0  0  0
    7.7062  -29.2809   14.8062 F   0  0  0  0  0  0  0  0  0  0  0  0
    3.1052  -26.9997   14.7803 N   0  0  0  0  0  0  0  0  0  0  0  0
    6.7958  -31.3692   11.1456 N   0  0  0  0  0  0  0  0  0  0  0  0
    2.7803  -26.7651    6.4806 N   0  0  0  0  0  0  0  0  0  0  0  0
    5.3347  -25.6966   10.6607 N   0  0  0  0  0  0  0  0  0  0  0  0
    3.9561  -27.5783   12.0408 O   0  0  0  0  0  0  0  0  0  0  0  0
    2.4090  -29.7169   10.5915 O   0  0  0  0  0  0  0  0  0  0  0  0
    1.3942  -28.8742    8.0055 O   0  0  0  0  0  0  0  0  0  0  0  0
    5.5786  -27.7961   15.9841 O   0  0  0  0  0  0  0  0  0  0  0  0
    4.6266  -29.8236   12.5931 O   0  0  0  0  0  0  0  0  0  0  0  0
  1  5  1  0  0  0  0
  1 18  1  6  0  0  0
  2 18  1  1  0  0  0
  2  3  1  0  0  0  0
  2 12  1  0  0  0  0
  3 19  1  1  0  0  0
  3  4  1  0  0  0  0
  4 20  1  6  0  0  0
  4 10  1  0  0  0  0
  5  6  1  0  0  0  0
  5 14  1  6  0  0  0
  6 21  1  1  0  0  0
  7 13  1  6  0  0  0
  7  6  1  0  0  0  0
  8  9  1  1  0  0  0
  8  7  1  0  0  0  0
 10 16  1  6  0  0  0
 11 10  1  0  0  0  0
 12 17  1  1  0  0  0
 12 11  1  0  0  0  0
 15  9  1  0  0  0  0
 22  8  1  0  0  0  0
 22  1  1  0  0  0  0
M  END
>  <CHROM.1>
175.48422125,54.98172440,178.96036740,4.40396204,-28.33121883,11.65534684
0.68622561,-0.93540085,1.04338054

>  <Name>
lig.pdb

>  <RI>
0

>  <Rbt.Current_Directory>
/home/itssahil/PROJECTS/Mol_Feturizer/New_Systems/rnas/5bxk

>  <Rbt.Executable>
rbdock ($Id: //depot/dev/client3/rdock/2013.1/src/exe/rbdock.cxx#4 $)

>  <Rbt.Library>
libRbt.so (2013.1, Build901 2013/11/27)

>  <Rbt.Parameter_File>
/export/apps/rDock/src/rDock_2013.1_src/data/scripts/dock_solv.prm

>  <Rbt.Receptor>
prm/blind_docking_80.prm

>  <SCORE>
-5.70096

>  <SCORE.INTER>
-1.5115

>  <SCORE.INTER.CONST>
1

>  <SCORE.INTER.POLAR>
0

>  <SCORE.INTER.ROT>
3

>  <SCORE.INTER.SOLV>
11.9132

>  <SCORE.INTER.VDW>
-10.5787

>  <SCORE.INTER.norm>
-0.0687044

>  <SCORE.INTRA>
-4.18946

>  <SCORE.INTRA.DIHEDRAL>
-6.82134

>  <SCORE.INTRA.DIHEDRAL.0>
7.18044

>  <SCORE.INTRA.POLAR>
0

>  <SCORE.INTRA.POLAR.0>
0

>  <SCORE.INTRA.REPUL>
0

>  <SCORE.INTRA.REPUL.0>
0

>  <SCORE.INTRA.SOLV>
-1.77856

>  <SCORE.INTRA.SOLV.lig_0>
-72.0615

>  <SCORE.INTRA.VDW>
0.110489

>  <SCORE.INTRA.VDW.0>
-1.54792

>  <SCORE.INTRA.norm>
-0.19043

>  <SCORE.RESTR>
0

>  <SCORE.RESTR.CAVITY>
0

>  <SCORE.RESTR.norm>
0

>  <SCORE.SYSTEM>
0

>  <SCORE.SYSTEM.CONST>
0

>  <SCORE.SYSTEM.DIHEDRAL>
0

>  <SCORE.SYSTEM.SOLV>
0

>  <SCORE.SYSTEM.norm>
0

>  <SCORE.heavy>
22

>  <SCORE.norm>
-0.259134

>  <RMSD>
28.676

$$$$
lig.pdb
 OpenBabel11021811523D
libRbt.so/2013.1/901 2013/11/27
 22 23  0  0  0  0  0  0  0  0999 V2000
    4.5818  -28.3864    9.0860 C   0  0  1  0  0  0  0  0  0  0  0  0
    4.8302  -26.2755   10.4015 C   0  0  1  0  0  0  0  0  0  0  0  0
    3.4462  -26.4194   11.2693 C   0  0  1  0  0  0  0  0  0  0  0  0
    3.0701  -24.9560   11.8280 C   0  0  2  0  0  0  0  0  0  0  0  0
    5.3424  -29.6651    8.5111 C   0  0  1  0  0  0  0  0  0  0  0  0
    6.3879  -29.2382    7.4084 C   0  0  2  0  0  0  0  0  0  0  0  0
    5.5911  -28.5452    6.1972 C   0  0  1  0  0  0  0  0  0  0  0  0
    4.8558  -27.1965    6.7121 C   0  0  1  0  0  0  0  0  0  0  0  0
    4.0663  -26.4506    5.6009 C   0  0  0  0  0  0  0  0  0  0  0  0
    4.2540  -24.4933   12.8111 C   0  0  1  0  0  0  0  0  0  0  0  0
    5.5978  -24.3778   11.9283 C   0  0  0  0  0  0  0  0  0  0  0  0
    5.9842  -25.7888   11.3105 C   0  0  2  0  0  0  0  0  0  0  0  0
    6.4936  -28.1362    5.1157 F   0  0  0  0  0  0  0  0  0  0  0  0
    5.9943  -30.3411    9.7268 N   0  0  0  0  0  0  0  0  0  0  0  0
    3.0255  -27.2104    5.0113 N   0  0  0  0  0  0  0  0  0  0  0  0
    3.9736  -23.1282   13.3582 N   0  0  0  0  0  0  0  0  0  0  0  0
    7.1914  -25.6948   10.4949 N   0  0  0  0  0  0  0  0  0  0  0  0
    5.2732  -27.5092    9.8829 O   0  0  0  0  0  0  0  0  0  0  0  0
    2.3646  -26.8815   10.3457 O   0  0  0  0  0  0  0  0  0  0  0  0
    1.9003  -25.0693   12.5657 O   0  0  0  0  0  0  0  0  0  0  0  0
    6.9125  -30.2165    7.0172 O   0  0  0  0  0  0  0  0  0  0  0  0
    3.9130  -27.6203    7.8996 O   0  0  0  0  0  0  0  0  0  0  0  0
  1  5  1  0  0  0  0
  1 18  1  6  0  0  0
  2 18  1  1  0  0  0
  2  3  1  0  0  0  0
  2 12  1  0  0  0  0
  3 19  1  6  0  0  0
  3  4  1  0  0  0  0
  4 20  1  1  0  0  0
  4 10  1  0  0  0  0
  5  6  1  0  0  0  0
  5 14  1  1  0  0  0
  6 21  1  6  0  0  0
  7 13  1  6  0  0  0
  7  6  1  0  0  0  0
  8  9  1  6  0  0  0
  8  7  1  0  0  0  0
 10 16  1  6  0  0  0
 11 10  1  0  0  0  0
 12 17  1  6  0  0  0
 12 11  1  0  0  0  0
 15  9  1  0  0  0  0
 22  8  1  0  0  0  0
 22  1  1  0  0  0  0
M  END
>  <CHROM.1>
174.46727613,55.78469248,60.39479622,4.77816666,-27.01160215,9.22771396,-1.27243511
-0.64498274,1.17048341

>  <Name>
lig.pdb

>  <RI>
0

>  <Rbt.Current_Directory>
/home/itssahil/PROJECTS/Mol_Feturizer/New_Systems/rnas/5bxk

>  <Rbt.Executable>
rbdock ($Id: //depot/dev/client3/rdock/2013.1/src/exe/rbdock.cxx#4 $)

>  <Rbt.Library>
libRbt.so (2013.1, Build901 2013/11/27)

>  <Rbt.Parameter_File>
/export/apps/rDock/src/rDock_2013.1_src/data/scripts/dock_solv.prm

>  <Rbt.Receptor>
prm/blind_docking_80.prm

>  <SCORE>
-3.78587

>  <SCORE.INTER>
-0.0128453

>  <SCORE.INTER.CONST>
1

>  <SCORE.INTER.POLAR>
0

>  <SCORE.INTER.ROT>
3

>  <SCORE.INTER.SOLV>
14.3369

>  <SCORE.INTER.VDW>
-10.3875

>  <SCORE.INTER.norm>
-0.000583879

>  <SCORE.INTRA>
-3.77302

>  <SCORE.INTRA.DIHEDRAL>
-6.81264

>  <SCORE.INTRA.DIHEDRAL.0>
7.18044

>  <SCORE.INTRA.POLAR>
0

>  <SCORE.INTRA.POLAR.0>
0

>  <SCORE.INTRA.REPUL>
0

>  <SCORE.INTRA.REPUL.0>
0

>  <SCORE.INTRA.SOLV>
-0.752993

>  <SCORE.INTRA.SOLV.lig_0>
-72.0615

>  <SCORE.INTRA.VDW>
0.009791

>  <SCORE.INTRA.VDW.0>
-1.54792

>  <SCORE.INTRA.norm>
-0.171501

>  <SCORE.RESTR>
0

>  <SCORE.RESTR.CAVITY>
0

>  <SCORE.RESTR.norm>
0

>  <SCORE.SYSTEM>
0

>  <SCORE.SYSTEM.CONST>
0

>  <SCORE.SYSTEM.DIHEDRAL>
0

>  <SCORE.SYSTEM.SOLV>
0

>  <SCORE.SYSTEM.norm>
0

>  <SCORE.heavy>
22

>  <SCORE.norm>
-0.172085

>  <RMSD>
28.680

$$$$
lig.pdb
 OpenBabel11021811523D
libRbt.so/2013.1/901 2013/11/27
 22 23  0  0  0  0  0  0  0  0999 V2000
    6.8450  -28.6351    8.3130 C   0  0  1  0  0  0  0  0  0  0  0  0
    5.4628  -27.2009    9.8234 C   0  0  1  0  0  0  0  0  0  0  0  0
    6.6694  -26.1761   10.2511 C   0  0  1  0  0  0  0  0  0  0  0  0
    6.2190  -25.4375   11.6101 C   0  0  2  0  0  0  0  0  0  0  0  0
    6.8209  -29.5342    6.9958 C   0  0  1  0  0  0  0  0  0  0  0  0
    5.8464  -30.7620    7.1811 C   0  0  2  0  0  0  0  0  0  0  0  0
    6.3951  -31.6651    8.3917 C   0  0  1  0  0  0  0  0  0  0  0  0
    6.3732  -30.8194    9.7734 C   0  0  1  0  0  0  0  0  0  0  0  0
    6.8788  -31.6199   11.0055 C   0  0  0  0  0  0  0  0  0  0  0  0
    4.9006  -24.5795   11.2816 C   0  0  1  0  0  0  0  0  0  0  0  0
    3.7439  -25.6166   10.8514 C   0  0  0  0  0  0  0  0  0  0  0  0
    4.1630  -26.4100    9.5411 C   0  0  2  0  0  0  0  0  0  0  0  0
    5.5524  -32.8445    8.6160 F   0  0  0  0  0  0  0  0  0  0  0  0
    6.3920  -28.5935    5.8596 N   0  0  0  0  0  0  0  0  0  0  0  0
    6.8853  -30.8865   12.2180 N   0  0  0  0  0  0  0  0  0  0  0  0
    4.4180  -23.8742   12.5108 N   0  0  0  0  0  0  0  0  0  0  0  0
    3.1303  -27.3648    9.1497 N   0  0  0  0  0  0  0  0  0  0  0  0
    5.7372  -27.8872    8.6230 O   0  0  0  0  0  0  0  0  0  0  0  0
    7.8954  -26.9887   10.5211 O   0  0  0  0  0  0  0  0  0  0  0  0
    7.2344  -24.5663   11.9781 O   0  0  0  0  0  0  0  0  0  0  0  0
    5.8724  -31.3906    6.1864 O   0  0  0  0  0  0  0  0  0  0  0  0
    7.2445  -29.5311    9.5294 O   0  0  0  0  0  0  0  0  0  0  0  0
  1  5  1  0  0  0  0
  1 18  1  1  0  0  0
  2 18  1  6  0  0  0
  2  3  1  0  0  0  0
  2 12  1  0  0  0  0
  3 19  1  1  0  0  0
  3  4  1  0  0  0  0
  4 20  1  6  0  0  0
  4 10  1  0  0  0  0
  5  6  1  0  0  0  0
  5 14  1  6  0  0  0
  6 21  1  6  0  0  0
  7 13  1  1  0  0  0
  7  6  1  0  0  0  0
  8  9  1  1  0  0  0
  8  7  1  0  0  0  0
 10 16  1  1  0  0  0
 11 10  1  0  0  0  0
 12 17  1  1  0  0  0
 12 11  1  0  0  0  0
 15  9  1  0  0  0  0
 22  8  1  0  0  0  0
 22  1  1  0  0  0  0
M  END
>  <CHROM.1>
169.05963225,53.82012106,179.05379036,5.96006326,-28.36115410,9.54184759
1.28050431,1.15142798,-2.39002837

>  <Name>
lig.pdb

>  <RI>
0

>  <Rbt.Current_Directory>
/home/itssahil/PROJECTS/Mol_Feturizer/New_Systems/rnas/5bxk

>  <Rbt.Executable>
rbdock ($Id: //depot/dev/client3/rdock/2013.1/src/exe/rbdock.cxx#4 $)

>  <Rbt.Library>
libRbt.so (2013.1, Build901 2013/11/27)

>  <Rbt.Parameter_File>
/export/apps/rDock/src/rDock_2013.1_src/data/scripts/dock_solv.prm

>  <Rbt.Receptor>
prm/blind_docking_60.prm

>  <SCORE>
-6.62142

>  <SCORE.INTER>
-2.72638

>  <SCORE.INTER.CONST>
1

>  <SCORE.INTER.POLAR>
0

>  <SCORE.INTER.ROT>
3

>  <SCORE.INTER.SOLV>
13.675

>  <SCORE.INTER.VDW>
-11.9759

>  <SCORE.INTER.norm>
-0.123926

>  <SCORE.INTRA>
-3.89505

>  <SCORE.INTRA.DIHEDRAL>
-6.30193

>  <SCORE.INTRA.DIHEDRAL.0>
7.18044

>  <SCORE.INTRA.POLAR>
0

>  <SCORE.INTRA.POLAR.0>
0

>  <SCORE.INTRA.REPUL>
0

>  <SCORE.INTRA.REPUL.0>
0

>  <SCORE.INTRA.SOLV>
-1.71198

>  <SCORE.INTRA.SOLV.lig_0>
-72.0615

>  <SCORE.INTRA.VDW>
0.111908

>  <SCORE.INTRA.VDW.0>
-1.54792

>  <SCORE.INTRA.norm>
-0.177048

>  <SCORE.RESTR>
0

>  <SCORE.RESTR.CAVITY>
0

>  <SCORE.RESTR.norm>
0

>  <SCORE.SYSTEM>
0

>  <SCORE.SYSTEM.CONST>
0

>  <SCORE.SYSTEM.DIHEDRAL>
0

>  <SCORE.SYSTEM.SOLV>
0

>  <SCORE.SYSTEM.norm>
0

>  <SCORE.heavy>
22

>  <SCORE.norm>
-0.300974

>  <RMSD>
28.851

$$$$
lig.pdb
 OpenBabel11021811523D
libRbt.so/2013.1/901 2013/11/27
 22 23  0  0  0  0  0  0  0  0999 V2000
    6.9062  -28.6910    8.3616 C   0  0  1  0  0  0  0  0  0  0  0  0
    5.4639  -27.2651    9.8228 C   0  0  1  0  0  0  0  0  0  0  0  0
    6.6246  -26.1939   10.2640 C   0  0  1  0  0  0  0  0  0  0  0  0
    6.1235  -25.4632   11.6094 C   0  0  2  0  0  0  0  0  0  0  0  0
    6.9321  -29.5917    7.0455 C   0  0  1  0  0  0  0  0  0  0  0  0
    5.9586  -30.8246    7.1989 C   0  0  2  0  0  0  0  0  0  0  0  0
    6.4704  -31.7233    8.4288 C   0  0  1  0  0  0  0  0  0  0  0  0
    6.3965  -30.8762    9.8078 C   0  0  1  0  0  0  0  0  0  0  0  0
    6.8639  -31.6725   11.0575 C   0  0  0  0  0  0  0  0  0  0  0  0
    4.7808  -24.6563   11.2517 C   0  0  1  0  0  0  0  0  0  0  0  0
    3.6705  -25.7378   10.8090 C   0  0  0  0  0  0  0  0  0  0  0  0
    4.1413  -26.5241    9.5121 C   0  0  2  0  0  0  0  0  0  0  0  0
    5.6269  -32.9071    8.6256 F   0  0  0  0  0  0  0  0  0  0  0  0
    6.5374  -28.6546    5.8940 N   0  0  0  0  0  0  0  0  0  0  0  0
    6.8695  -30.9239   12.2607 N   0  0  0  0  0  0  0  0  0  0  0  0
    4.2511  -23.9609   12.4671 N   0  0  0  0  0  0  0  0  0  0  0  0
    3.1512  -27.5186    9.1097 N   0  0  0  0  0  0  0  0  0  0  0  0
    5.7844  -27.9488    8.6324 O   0  0  0  0  0  0  0  0  0  0  0  0
    7.8744  -26.9594   10.5613 O   0  0  0  0  0  0  0  0  0  0  0  0
    7.0998  -24.5531   11.9887 O   0  0  0  0  0  0  0  0  0  0  0  0
    6.0221  -31.4542    6.2065 O   0  0  0  0  0  0  0  0  0  0  0  0
    7.2686  -29.5834    9.5921 O   0  0  0  0  0  0  0  0  0  0  0  0
  1  5  1  0  0  0  0
  1 18  1  1  0  0  0
  2 18  1  6  0  0  0
  2  3  1  0  0  0  0
  2 12  1  0  0  0  0
  3 19  1  1  0  0  0
  3  4  1  0  0  0  0
  4 20  1  6  0  0  0
  4 10  1  0  0  0  0
  5  6  1  0  0  0  0
  5 14  1  6  0  0  0
  6 21  1  6  0  0  0
  7 13  1  1  0  0  0
  7  6  1  0  0  0  0
  8  9  1  1  0  0  0
  8  7  1  0  0  0  0
 10 16  1  1  0  0  0
 11 10  1  0  0  0  0
 12 17  1  1  0  0  0
 12 11  1  0  0  0  0
 15  9  1  0  0  0  0
 22  8  1  0  0  0  0
 22  1  1  0  0  0  0
M  END
>  <CHROM.1>
168.91274239,55.95405927,176.94676707,5.96750018,-28.41929240,9.55568376
1.19407340,1.17666133,-2.31240542

>  <Name>
lig.pdb

>  <RI>
0

>  <Rbt.Current_Directory>
/home/itssahil/PROJECTS/Mol_Feturizer/New_Systems/rnas/5bxk

>  <Rbt.Executable>
rbdock ($Id: //depot/dev/client3/rdock/2013.1/src/exe/rbdock.cxx#4 $)

>  <Rbt.Library>
libRbt.so (2013.1, Build901 2013/11/27)

>  <Rbt.Parameter_File>
/export/apps/rDock/src/rDock_2013.1_src/data/scripts/dock_solv.prm

>  <Rbt.Receptor>
prm/blind_docking_40.prm

>  <SCORE>
-6.64541

>  <SCORE.INTER>
-2.67925

>  <SCORE.INTER.CONST>
1

>  <SCORE.INTER.POLAR>
0

>  <SCORE.INTER.ROT>
3

>  <SCORE.INTER.SOLV>
13.8832

>  <SCORE.INTER.VDW>
-12.0139

>  <SCORE.INTER.norm>
-0.121784

>  <SCORE.INTRA>
-3.96616

>  <SCORE.INTRA.DIHEDRAL>
-6.36376

>  <SCORE.INTRA.DIHEDRAL.0>
7.18044

>  <SCORE.INTRA.POLAR>
0

>  <SCORE.INTRA.POLAR.0>
0

>  <SCORE.INTRA.REPUL>
0

>  <SCORE.INTRA.REPUL.0>
0

>  <SCORE.INTRA.SOLV>
-1.70662

>  <SCORE.INTRA.SOLV.lig_0>
-72.0615

>  <SCORE.INTRA.VDW>
0.0690273

>  <SCORE.INTRA.VDW.0>
-1.54792

>  <SCORE.INTRA.norm>
-0.18028

>  <SCORE.RESTR>
0

>  <SCORE.RESTR.CAVITY>
0

>  <SCORE.RESTR.norm>
0

>  <SCORE.SYSTEM>
0

>  <SCORE.SYSTEM.CONST>
0

>  <SCORE.SYSTEM.DIHEDRAL>
0

>  <SCORE.SYSTEM.SOLV>
0

>  <SCORE.SYSTEM.norm>
0

>  <SCORE.heavy>
22

>  <SCORE.norm>
-0.302064

>  <RMSD>
28.886

$$$$
lig.pdb
 OpenBabel11021811523D
libRbt.so/2013.1/901 2013/11/27
 22 23  0  0  0  0  0  0  0  0999 V2000
    6.9008  -28.6933    8.3663 C   0  0  1  0  0  0  0  0  0  0  0  0
    5.4607  -27.2730    9.8350 C   0  0  1  0  0  0  0  0  0  0  0  0
    6.6273  -26.2078   10.2752 C   0  0  1  0  0  0  0  0  0  0  0  0
    6.1315  -25.4752   11.6215 C   0  0  2  0  0  0  0  0  0  0  0  0
    6.9268  -29.5883    7.0463 C   0  0  1  0  0  0  0  0  0  0  0  0
    5.9599  -30.8266    7.1977 C   0  0  2  0  0  0  0  0  0  0  0  0
    6.4803  -31.7280    8.4220 C   0  0  1  0  0  0  0  0  0  0  0  0
    6.4068  -30.8871    9.8049 C   0  0  1  0  0  0  0  0  0  0  0  0
    6.8824  -31.6865   11.0496 C   0  0  0  0  0  0  0  0  0  0  0  0
    4.7924  -24.6614   11.2658 C   0  0  1  0  0  0  0  0  0  0  0  0
    3.6762  -25.7373   10.8241 C   0  0  0  0  0  0  0  0  0  0  0  0
    4.1414  -26.5254    9.5262 C   0  0  2  0  0  0  0  0  0  0  0  0
    5.6434  -32.9168    8.6166 F   0  0  0  0  0  0  0  0  0  0  0  0
    6.5236  -28.6484    5.9001 N   0  0  0  0  0  0  0  0  0  0  0  0
    6.8659  -30.9498   12.2601 N   0  0  0  0  0  0  0  0  0  0  0  0
    4.2677  -23.9639   12.4822 N   0  0  0  0  0  0  0  0  0  0  0  0
    3.1459  -27.5148    9.1247 N   0  0  0  0  0  0  0  0  0  0  0  0
    5.7763  -27.9579    8.6440 O   0  0  0  0  0  0  0  0  0  0  0  0
    7.8736  -26.9796   10.5706 O   0  0  0  0  0  0  0  0  0  0  0  0
    7.1128  -24.5700   11.9999 O   0  0  0  0  0  0  0  0  0  0  0  0
    6.0232  -31.4518    6.2024 O   0  0  0  0  0  0  0  0  0  0  0  0
    7.2718  -29.5891    9.5917 O   0  0  0  0  0  0  0  0  0  0  0  0
  1  5  1  0  0  0  0
  1 18  1  1  0  0  0
  2 18  1  6  0  0  0
  2  3  1  0  0  0  0
  2 12  1  0  0  0  0
  3 19  1  1  0  0  0
  3  4  1  0  0  0  0
  4 20  1  6  0  0  0
  4 10  1  0  0  0  0
  5  6  1  0  0  0  0
  5 14  1  6  0  0  0
  6 21  1  6  0  0  0
  7 13  1  1  0  0  0
  7  6  1  0  0  0  0
  8  9  1  1  0  0  0
  8  7  1  0  0  0  0
 10 16  1  1  0  0  0
 11 10  1  0  0  0  0
 12 17  1  1  0  0  0
 12 11  1  0  0  0  0
 15  9  1  0  0  0  0
 22  8  1  0  0  0  0
 22  1  1  0  0  0  0
M  END
>  <CHROM.1>
169.40070025,55.16582187,178.00338958,5.97099643,-28.42622246,9.56088948
1.19793186,1.17230743,-2.31503731

>  <Name>
lig.pdb

>  <RI>
0

>  <Rbt.Current_Directory>
/home/itssahil/PROJECTS/Mol_Feturizer/New_Systems/rnas/5bxk

>  <Rbt.Executable>
rbdock ($Id: //depot/dev/client3/rdock/2013.1/src/exe/rbdock.cxx#4 $)

>  <Rbt.Library>
libRbt.so (2013.1, Build901 2013/11/27)

>  <Rbt.Parameter_File>
/export/apps/rDock/src/rDock_2013.1_src/data/scripts/dock_solv.prm

>  <Rbt.Receptor>
prm/blind_docking_80.prm

>  <SCORE>
-6.60537

>  <SCORE.INTER>
-2.6308

>  <SCORE.INTER.CONST>
1

>  <SCORE.INTER.POLAR>
0

>  <SCORE.INTER.ROT>
3

>  <SCORE.INTER.SOLV>
13.8355

>  <SCORE.INTER.VDW>
-11.9657

>  <SCORE.INTER.norm>
-0.119582

>  <SCORE.INTRA>
-3.97457

>  <SCORE.INTRA.DIHEDRAL>
-6.39617

>  <SCORE.INTRA.DIHEDRAL.0>
7.18044

>  <SCORE.INTRA.POLAR>
0

>  <SCORE.INTRA.POLAR.0>
0

>  <SCORE.INTRA.REPUL>
0

>  <SCORE.INTRA.REPUL.0>
0

>  <SCORE.INTRA.SOLV>
-1.71622

>  <SCORE.INTRA.SOLV.lig_0>
-72.0615

>  <SCORE.INTRA.VDW>
0.0816294

>  <SCORE.INTRA.VDW.0>
-1.54792

>  <SCORE.INTRA.norm>
-0.180662

>  <SCORE.RESTR>
0

>  <SCORE.RESTR.CAVITY>
0

>  <SCORE.RESTR.norm>
0

>  <SCORE.SYSTEM>
0

>  <SCORE.SYSTEM.CONST>
0

>  <SCORE.SYSTEM.DIHEDRAL>
0

>  <SCORE.SYSTEM.SOLV>
0

>  <SCORE.SYSTEM.norm>
0

>  <SCORE.heavy>
22

>  <SCORE.norm>
-0.300244

>  <RMSD>
28.886

$$$$
lig.pdb
 OpenBabel11021811523D
libRbt.so/2013.1/901 2013/11/27
 22 23  0  0  0  0  0  0  0  0999 V2000
    6.8651  -28.6816    8.3464 C   0  0  1  0  0  0  0  0  0  0  0  0
    5.4431  -27.2667    9.8378 C   0  0  1  0  0  0  0  0  0  0  0  0
    6.6060  -26.1919   10.2640 C   0  0  1  0  0  0  0  0  0  0  0  0
    6.1248  -25.4700   11.6214 C   0  0  2  0  0  0  0  0  0  0  0  0
    6.8684  -29.5829    7.0304 C   0  0  1  0  0  0  0  0  0  0  0  0
    5.9024  -30.8191    7.2034 C   0  0  2  0  0  0  0  0  0  0  0  0
    6.4414  -31.7154    8.4234 C   0  0  1  0  0  0  0  0  0  0  0  0
    6.3915  -30.8679    9.8032 C   0  0  1  0  0  0  0  0  0  0  0  0
    6.8861  -31.6620   11.0439 C   0  0  0  0  0  0  0  0  0  0  0  0
    4.7721  -24.6681   11.2908 C   0  0  1  0  0  0  0  0  0  0  0  0
    3.6596  -25.7531   10.8623 C   0  0  0  0  0  0  0  0  0  0  0  0
    4.1117  -26.5309    9.5536 C   0  0  2  0  0  0  0  0  0  0  0  0
    5.6061  -32.9020    8.6372 F   0  0  0  0  0  0  0  0  0  0  0  0
    6.4479  -28.6478    5.8865 N   0  0  0  0  0  0  0  0  0  0  0  0
    6.8898  -30.9198   12.2510 N   0  0  0  0  0  0  0  0  0  0  0  0
    4.2602  -23.9811   12.5186 N   0  0  0  0  0  0  0  0  0  0  0  0
    3.1197  -27.5285    9.1637 N   0  0  0  0  0  0  0  0  0  0  0  0
    5.7463  -27.9433    8.6388 O   0  0  0  0  0  0  0  0  0  0  0  0
    7.8646  -26.9524   10.5359 O   0  0  0  0  0  0  0  0  0  0  0  0
    7.1031  -24.5568   11.9880 O   0  0  0  0  0  0  0  0  0  0  0  0
    5.9487  -31.4490    6.2102 O   0  0  0  0  0  0  0  0  0  0  0  0
    7.2547  -29.5722    9.5699 O   0  0  0  0  0  0  0  0  0  0  0  0
  1  5  1  0  0  0  0
  1 18  1  1  0  0  0
  2 18  1  6  0  0  0
  2  3  1  0  0  0  0
  2 12  1  0  0  0  0
  3 19  1  1  0  0  0
  3  4  1  0  0  0  0
  4 20  1  6  0  0  0
  4 10  1  0  0  0  0
  5  6  1  0  0  0  0
  5 14  1  6  0  0  0
  6 21  1  6  0  0  0
  7 13  1  1  0  0  0
  7  6  1  0  0  0  0
  8  9  1  1  0  0  0
  8  7  1  0  0  0  0
 10 16  1  1  0  0  0
 11 10  1  0  0  0  0
 12 17  1  1  0  0  0
 12 11  1  0  0  0  0
 15  9  1  0  0  0  0
 22  8  1  0  0  0  0
 22  1  1  0  0  0  0
M  END
>  <CHROM.1>
168.49377739,56.15424087,178.03123416,5.94463964,-28.41816031,9.56315320
1.21894640,1.16316554,-2.33188821

>  <Name>
lig.pdb

>  <RI>
0

>  <Rbt.Current_Directory>
/home/itssahil/PROJECTS/Mol_Feturizer/New_Systems/rnas/5bxk

>  <Rbt.Executable>
rbdock ($Id: //depot/dev/client3/rdock/2013.1/src/exe/rbdock.cxx#4 $)

>  <Rbt.Library>
libRbt.so (2013.1, Build901 2013/11/27)

>  <Rbt.Parameter_File>
/export/apps/rDock/src/rDock_2013.1_src/data/scripts/dock_solv.prm

>  <Rbt.Receptor>
prm/blind_docking_40.prm

>  <SCORE>
-6.60415

>  <SCORE.INTER>
-2.64101

>  <SCORE.INTER.CONST>
1

>  <SCORE.INTER.POLAR>
0

>  <SCORE.INTER.ROT>
3

>  <SCORE.INTER.SOLV>
13.3987

>  <SCORE.INTER.VDW>
-11.8269

>  <SCORE.INTER.norm>
-0.120046

>  <SCORE.INTRA>
-3.96624

>  <SCORE.INTRA.DIHEDRAL>
-6.34853

>  <SCORE.INTRA.DIHEDRAL.0>
7.18044

>  <SCORE.INTRA.POLAR>
0

>  <SCORE.INTRA.POLAR.0>
0

>  <SCORE.INTRA.REPUL>
0

>  <SCORE.INTRA.REPUL.0>
0

>  <SCORE.INTRA.SOLV>
-1.71791

>  <SCORE.INTRA.SOLV.lig_0>
-72.0615

>  <SCORE.INTRA.VDW>
0.0669755

>  <SCORE.INTRA.VDW.0>
-1.54792

>  <SCORE.INTRA.norm>
-0.180284

>  <SCORE.RESTR>
0.00310901

>  <SCORE.RESTR.CAVITY>
0.00310901

>  <SCORE.RESTR.norm>
0.000141319

>  <SCORE.SYSTEM>
0

>  <SCORE.SYSTEM.CONST>
0

>  <SCORE.SYSTEM.DIHEDRAL>
0

>  <SCORE.SYSTEM.SOLV>
0

>  <SCORE.SYSTEM.norm>
0

>  <SCORE.heavy>
22

>  <SCORE.norm>
-0.300188

>  <RMSD>
28.888

$$$$
lig.pdb
 OpenBabel11021811523D
libRbt.so/2013.1/901 2013/11/27
 22 23  0  0  0  0  0  0  0  0999 V2000
    5.9317  -25.6257    9.2196 C   0  0  1  0  0  0  0  0  0  0  0  0
    6.3192  -28.0647    9.6065 C   0  0  1  0  0  0  0  0  0  0  0  0
    6.6911  -29.0028    8.3139 C   0  0  1  0  0  0  0  0  0  0  0  0
    6.2090  -30.5029    8.6490 C   0  0  2  0  0  0  0  0  0  0  0  0
    5.0345  -25.0775   10.4190 C   0  0  1  0  0  0  0  0  0  0  0  0
    3.8471  -26.0722   10.7220 C   0  0  2  0  0  0  0  0  0  0  0  0
    2.9223  -26.1701    9.4115 C   0  0  1  0  0  0  0  0  0  0  0  0
    3.7680  -26.7908    8.1768 C   0  0  1  0  0  0  0  0  0  0  0  0
    2.9474  -26.9331    6.8649 C   0  0  0  0  0  0  0  0  0  0  0  0
    7.0521  -31.0108    9.9192 C   0  0  1  0  0  0  0  0  0  0  0  0
    6.6730  -30.0581   11.1630 C   0  0  0  0  0  0  0  0  0  0  0  0
    7.0826  -28.5538   10.8607 C   0  0  2  0  0  0  0  0  0  0  0  0
    1.7779  -27.0639    9.6187 F   0  0  0  0  0  0  0  0  0  0  0  0
    5.9919  -24.9057   11.6080 N   0  0  0  0  0  0  0  0  0  0  0  0
    3.6719  -27.4820    5.7776 N   0  0  0  0  0  0  0  0  0  0  0  0
    6.6424  -32.4009   10.2946 N   0  0  0  0  0  0  0  0  0  0  0  0
    6.7298  -27.6772   11.9735 N   0  0  0  0  0  0  0  0  0  0  0  0
    6.7237  -26.7251    9.4358 O   0  0  0  0  0  0  0  0  0  0  0  0
    5.9230  -28.4955    7.1353 O   0  0  0  0  0  0  0  0  0  0  0  0
    6.5220  -31.3041    7.5602 O   0  0  0  0  0  0  0  0  0  0  0  0
    3.2180  -25.6171   11.6066 O   0  0  0  0  0  0  0  0  0  0  0  0
    5.0200  -25.8586    7.9720 O   0  0  0  0  0  0  0  0  0  0  0  0
  1  5  1  0  0  0  0
  1 18  1  1  0  0  0
  2 18  1  6  0  0  0
  2  3  1  0  0  0  0
  2 12  1  0  0  0  0
  3 19  1  6  0  0  0
  3  4  1  0  0  0  0
  4 20  1  6  0  0  0
  4 10  1  0  0  0  0
  5  6  1  0  0  0  0
  5 14  1  1  0  0  0
  6 21  1  1  0  0  0
  7 13  1  1  0  0  0
  7  6  1  0  0  0  0
  8  9  1  6  0  0  0
  8  7  1  0  0  0  0
 10 16  1  1  0  0  0
 11 10  1  0  0  0  0
 12 17  1  1  0  0  0
 12 11  1  0  0  0  0
 15  9  1  0  0  0  0
 22  8  1  0  0  0  0
 22  1  1  0  0  0  0
M  END
>  <CHROM.1>
71.27403687,108.36112542,-179.65642068,5.24814073,-27.77629423,9.35642747
-2.51186083,0.86011849,-2.28137582

>  <Name>
lig.pdb

>  <RI>
0

>  <Rbt.Current_Directory>
/home/itssahil/PROJECTS/Mol_Feturizer/New_Systems/rnas/5bxk

>  <Rbt.Executable>
rbdock ($Id: //depot/dev/client3/rdock/2013.1/src/exe/rbdock.cxx#4 $)

>  <Rbt.Library>
libRbt.so (2013.1, Build901 2013/11/27)

>  <Rbt.Parameter_File>
/export/apps/rDock/src/rDock_2013.1_src/data/scripts/dock_solv.prm

>  <Rbt.Receptor>
prm/blind_docking_40.prm

>  <SCORE>
-3.06603

>  <SCORE.INTER>
-4.09216

>  <SCORE.INTER.CONST>
1

>  <SCORE.INTER.POLAR>
0

>  <SCORE.INTER.ROT>
3

>  <SCORE.INTER.SOLV>
9.99845

>  <SCORE.INTER.VDW>
-11.6609

>  <SCORE.INTER.norm>
-0.186007

>  <SCORE.INTRA>
1.02613

>  <SCORE.INTRA.DIHEDRAL>
0.0938165

>  <SCORE.INTRA.DIHEDRAL.0>
7.18044

>  <SCORE.INTRA.POLAR>
0

>  <SCORE.INTRA.POLAR.0>
0

>  <SCORE.INTRA.REPUL>
0

>  <SCORE.INTRA.REPUL.0>
0

>  <SCORE.INTRA.SOLV>
4.52571

>  <SCORE.INTRA.SOLV.lig_0>
-72.0615

>  <SCORE.INTRA.VDW>
-1.28363

>  <SCORE.INTRA.VDW.0>
-1.54792

>  <SCORE.INTRA.norm>
0.0466423

>  <SCORE.RESTR>
0

>  <SCORE.RESTR.CAVITY>
0

>  <SCORE.RESTR.norm>
0

>  <SCORE.SYSTEM>
0

>  <SCORE.SYSTEM.CONST>
0

>  <SCORE.SYSTEM.DIHEDRAL>
0

>  <SCORE.SYSTEM.SOLV>
0

>  <SCORE.SYSTEM.norm>
0

>  <SCORE.heavy>
22

>  <SCORE.norm>
-0.139365

>  <RMSD>
29.025

$$$$
lig.pdb
 OpenBabel11021811523D
libRbt.so/2013.1/901 2013/11/27
 22 23  0  0  0  0  0  0  0  0999 V2000
    4.4198  -29.8574   10.6971 C   0  0  1  0  0  0  0  0  0  0  0  0
    4.6927  -27.3979   11.0502 C   0  0  1  0  0  0  0  0  0  0  0  0
    4.3162  -27.3219   12.6445 C   0  0  1  0  0  0  0  0  0  0  0  0
    3.8727  -25.8069   12.9660 C   0  0  2  0  0  0  0  0  0  0  0  0
    5.1534  -31.2075   10.2689 C   0  0  1  0  0  0  0  0  0  0  0  0
    5.4112  -31.2279    8.7119 C   0  0  2  0  0  0  0  0  0  0  0  0
    3.9905  -31.1729    7.9631 C   0  0  1  0  0  0  0  0  0  0  0  0
    3.2312  -29.7838    8.3078 C   0  0  1  0  0  0  0  0  0  0  0  0
    1.8479  -29.6380    7.6154 C   0  0  0  0  0  0  0  0  0  0  0  0
    5.1409  -24.8607   12.6860 C   0  0  1  0  0  0  0  0  0  0  0  0
    5.4903  -24.9729   11.1163 C   0  0  0  0  0  0  0  0  0  0  0  0
    5.8855  -26.4633   10.7363 C   0  0  2  0  0  0  0  0  0  0  0  0
    4.1424  -31.2095    6.5046 F   0  0  0  0  0  0  0  0  0  0  0  0
    6.4491  -31.2544   11.0927 N   0  0  0  0  0  0  0  0  0  0  0  0
    1.2011  -28.3999    7.8541 N   0  0  0  0  0  0  0  0  0  0  0  0
    4.7925  -23.4294   12.9534 N   0  0  0  0  0  0  0  0  0  0  0  0
    6.1889  -26.5821    9.3133 N   0  0  0  0  0  0  0  0  0  0  0  0
    5.1250  -28.6811   10.6580 O   0  0  0  0  0  0  0  0  0  0  0  0
    3.1560  -28.2325   12.8918 O   0  0  0  0  0  0  0  0  0  0  0  0
    3.5541  -25.7334   14.3145 O   0  0  0  0  0  0  0  0  0  0  0  0
    5.9464  -32.2436    8.4527 O   0  0  0  0  0  0  0  0  0  0  0  0
    3.0981  -29.7178    9.8751 O   0  0  0  0  0  0  0  0  0  0  0  0
  1  5  1  0  0  0  0
  1 18  1  6  0  0  0
  2 18  1  1  0  0  0
  2  3  1  0  0  0  0
  2 12  1  0  0  0  0
  3 19  1  6  0  0  0
  3  4  1  0  0  0  0
  4 20  1  1  0  0  0
  4 10  1  0  0  0  0
  5  6  1  0  0  0  0
  5 14  1  1  0  0  0
  6 21  1  1  0  0  0
  7 13  1  6  0  0  0
  7  6  1  0  0  0  0
  8  9  1  6  0  0  0
  8  7  1  0  0  0  0
 10 16  1  6  0  0  0
 11 10  1  0  0  0  0
 12 17  1  6  0  0  0
 12 11  1  0  0  0  0
 15  9  1  0  0  0  0
 22  8  1  0  0  0  0
 22  1  1  0  0  0  0
M  END
>  <CHROM.1>
-176.75385611,62.04654316,-177.02174812,4.39567768,-28.47540934,10.35242656
-1.62964205,-0.66358143,0.64576693

>  <Name>
lig.pdb

>  <RI>
0

>  <Rbt.Current_Directory>
/home/itssahil/PROJECTS/Mol_Feturizer/New_Systems/rnas/5bxk

>  <Rbt.Executable>
rbdock ($Id: //depot/dev/client3/rdock/2013.1/src/exe/rbdock.cxx#4 $)

>  <Rbt.Library>
libRbt.so (2013.1, Build901 2013/11/27)

>  <Rbt.Parameter_File>
/export/apps/rDock/src/rDock_2013.1_src/data/scripts/dock_solv.prm

>  <Rbt.Receptor>
prm/blind_docking_80.prm

>  <SCORE>
-2.84552

>  <SCORE.INTER>
1.44368

>  <SCORE.INTER.CONST>
1

>  <SCORE.INTER.POLAR>
0

>  <SCORE.INTER.ROT>
3

>  <SCORE.INTER.SOLV>
14.3326

>  <SCORE.INTER.VDW>
-9.41509

>  <SCORE.INTER.norm>
0.065622

>  <SCORE.INTRA>
-4.2892

>  <SCORE.INTRA.DIHEDRAL>
-6.9418

>  <SCORE.INTRA.DIHEDRAL.0>
7.18044

>  <SCORE.INTRA.POLAR>
0

>  <SCORE.INTRA.POLAR.0>
0

>  <SCORE.INTRA.REPUL>
0

>  <SCORE.INTRA.REPUL.0>
0

>  <SCORE.INTRA.SOLV>
-1.80734

>  <SCORE.INTRA.SOLV.lig_0>
-72.0615

>  <SCORE.INTRA.VDW>
0.0853676

>  <SCORE.INTRA.VDW.0>
-1.54792

>  <SCORE.INTRA.norm>
-0.194964

>  <SCORE.RESTR>
0

>  <SCORE.RESTR.CAVITY>
0

>  <SCORE.RESTR.norm>
0

>  <SCORE.SYSTEM>
0

>  <SCORE.SYSTEM.CONST>
0

>  <SCORE.SYSTEM.DIHEDRAL>
0

>  <SCORE.SYSTEM.SOLV>
0

>  <SCORE.SYSTEM.norm>
0

>  <SCORE.heavy>
22

>  <SCORE.norm>
-0.129342

>  <RMSD>
29.097

$$$$
lig.pdb
 OpenBabel11021811523D
libRbt.so/2013.1/901 2013/11/27
 22 23  0  0  0  0  0  0  0  0999 V2000
    6.8584  -28.6376    8.1534 C   0  0  1  0  0  0  0  0  0  0  0  0
    5.4182  -27.2256    9.6301 C   0  0  1  0  0  0  0  0  0  0  0  0
    6.5916  -26.1865   10.1126 C   0  0  1  0  0  0  0  0  0  0  0  0
    6.0846  -25.4786   11.4679 C   0  0  2  0  0  0  0  0  0  0  0  0
    6.9005  -29.4845    6.8024 C   0  0  1  0  0  0  0  0  0  0  0  0
    5.9027  -30.7048    6.8825 C   0  0  2  0  0  0  0  0  0  0  0  0
    6.3695  -31.6618    8.0860 C   0  0  1  0  0  0  0  0  0  0  0  0
    6.2770  -30.8702    9.4965 C   0  0  1  0  0  0  0  0  0  0  0  0
    6.7007  -31.7250   10.7231 C   0  0  0  0  0  0  0  0  0  0  0  0
    4.7618  -24.6391   11.1109 C   0  0  1  0  0  0  0  0  0  0  0  0
    3.6387  -25.6894   10.6274 C   0  0  0  0  0  0  0  0  0  0  0  0
    4.1137  -26.4535    9.3188 C   0  0  2  0  0  0  0  0  0  0  0  0
    5.5014  -32.8372    8.2145 F   0  0  0  0  0  0  0  0  0  0  0  0
    6.5494  -28.4945    5.6815 N   0  0  0  0  0  0  0  0  0  0  0  0
    5.8857  -32.8607   10.9551 N   0  0  0  0  0  0  0  0  0  0  0  0
    4.2275  -23.9628   12.3351 N   0  0  0  0  0  0  0  0  0  0  0  0
    3.1118  -27.4200    8.8792 N   0  0  0  0  0  0  0  0  0  0  0  0
    5.7433  -27.8870    8.4283 O   0  0  0  0  0  0  0  0  0  0  0  0
    7.8231  -26.9815   10.4088 O   0  0  0  0  0  0  0  0  0  0  0  0
    7.0716  -24.5956   11.8822 O   0  0  0  0  0  0  0  0  0  0  0  0
    5.9791  -31.2947    5.8668 O   0  0  0  0  0  0  0  0  0  0  0  0
    7.1760  -29.5857    9.3543 O   0  0  0  0  0  0  0  0  0  0  0  0
  1  5  1  0  0  0  0
  1 18  1  1  0  0  0
  2 18  1  6  0  0  0
  2  3  1  0  0  0  0
  2 12  1  0  0  0  0
  3 19  1  1  0  0  0
  3  4  1  0  0  0  0
  4 20  1  6  0  0  0
  4 10  1  0  0  0  0
  5  6  1  0  0  0  0
  5 14  1  6  0  0  0
  6 21  1  6  0  0  0
  7 13  1  1  0  0  0
  7  6  1  0  0  0  0
  8  9  1  1  0  0  0
  8  7  1  0  0  0  0
 10 16  1  1  0  0  0
 11 10  1  0  0  0  0
 12 17  1  1  0  0  0
 12 11  1  0  0  0  0
 15  9  1  0  0  0  0
 22  8  1  0  0  0  0
 22  1  1  0  0  0  0
M  END
>  <CHROM.1>
170.21973197,55.60977095,-62.66380774,5.87019469,-28.46305233,9.27727793
0.90434727,1.37238553,-2.02617691

>  <Name>
lig.pdb

>  <RI>
0

>  <Rbt.Current_Directory>
/home/itssahil/PROJECTS/Mol_Feturizer/New_Systems/rnas/5bxk

>  <Rbt.Executable>
rbdock ($Id: //depot/dev/client3/rdock/2013.1/src/exe/rbdock.cxx#4 $)

>  <Rbt.Library>
libRbt.so (2013.1, Build901 2013/11/27)

>  <Rbt.Parameter_File>
/export/apps/rDock/src/rDock_2013.1_src/data/scripts/dock_solv.prm

>  <Rbt.Receptor>
prm/blind_docking_80.prm

>  <SCORE>
-5.82932

>  <SCORE.INTER>
-2.31468

>  <SCORE.INTER.CONST>
1

>  <SCORE.INTER.POLAR>
0

>  <SCORE.INTER.ROT>
3

>  <SCORE.INTER.SOLV>
14.6189

>  <SCORE.INTER.VDW>
-12.0161

>  <SCORE.INTER.norm>
-0.105213

>  <SCORE.INTRA>
-3.51464

>  <SCORE.INTRA.DIHEDRAL>
-6.48068

>  <SCORE.INTRA.DIHEDRAL.0>
7.18044

>  <SCORE.INTRA.POLAR>
0

>  <SCORE.INTRA.POLAR.0>
0

>  <SCORE.INTRA.REPUL>
0

>  <SCORE.INTRA.REPUL.0>
0

>  <SCORE.INTRA.SOLV>
-0.846143

>  <SCORE.INTRA.SOLV.lig_0>
-72.0615

>  <SCORE.INTRA.VDW>
0.148767

>  <SCORE.INTRA.VDW.0>
-1.54792

>  <SCORE.INTRA.norm>
-0.159757

>  <SCORE.RESTR>
0

>  <SCORE.RESTR.CAVITY>
0

>  <SCORE.RESTR.norm>
0

>  <SCORE.SYSTEM>
0

>  <SCORE.SYSTEM.CONST>
0

>  <SCORE.SYSTEM.DIHEDRAL>
0

>  <SCORE.SYSTEM.SOLV>
0

>  <SCORE.SYSTEM.norm>
0

>  <SCORE.heavy>
22

>  <SCORE.norm>
-0.264969

>  <RMSD>
29.112

$$$$
lig.pdb
 OpenBabel11021811523D
libRbt.so/2013.1/901 2013/11/27
 22 23  0  0  0  0  0  0  0  0999 V2000
    4.2302  -28.8310   12.4068 C   0  0  1  0  0  0  0  0  0  0  0  0
    4.0724  -27.8522   10.1121 C   0  0  1  0  0  0  0  0  0  0  0  0
    2.5284  -28.3062    9.7973 C   0  0  1  0  0  0  0  0  0  0  0  0
    2.3307  -28.2762    8.1988 C   0  0  2  0  0  0  0  0  0  0  0  0
    4.8347  -28.6270   13.8686 C   0  0  1  0  0  0  0  0  0  0  0  0
    6.4124  -28.6444   13.8229 C   0  0  2  0  0  0  0  0  0  0  0  0
    6.8869  -30.0816   13.2828 C   0  0  1  0  0  0  0  0  0  0  0  0
    6.3582  -30.3112   11.7686 C   0  0  1  0  0  0  0  0  0  0  0  0
    6.7808  -31.6762   11.1582 C   0  0  0  0  0  0  0  0  0  0  0  0
    2.5350  -26.7580    7.7135 C   0  0  1  0  0  0  0  0  0  0  0  0
    4.0553  -26.3429    8.0522 C   0  0  0  0  0  0  0  0  0  0  0  0
    4.3171  -26.4065    9.6172 C   0  0  2  0  0  0  0  0  0  0  0  0
    8.3489  -30.1874   13.2301 F   0  0  0  0  0  0  0  0  0  0  0  0
    4.2635  -27.2924   14.3709 N   0  0  0  0  0  0  0  0  0  0  0  0
    6.3553  -31.8769    9.8215 N   0  0  0  0  0  0  0  0  0  0  0  0
    2.3775  -26.6601    6.2279 N   0  0  0  0  0  0  0  0  0  0  0  0
    5.6959  -26.0482    9.9364 N   0  0  0  0  0  0  0  0  0  0  0  0
    4.3535  -27.8150   11.4929 O   0  0  0  0  0  0  0  0  0  0  0  0
    2.3479  -29.7084   10.2847 O   0  0  0  0  0  0  0  0  0  0  0  0
    1.0251  -28.6575    7.9239 O   0  0  0  0  0  0  0  0  0  0  0  0
    6.8023  -28.4964   14.9235 O   0  0  0  0  0  0  0  0  0  0  0  0
    4.7915  -30.1611   11.8087 O   0  0  0  0  0  0  0  0  0  0  0  0
  1  5  1  0  0  0  0
  1 18  1  6  0  0  0
  2 18  1  1  0  0  0
  2  3  1  0  0  0  0
  2 12  1  0  0  0  0
  3 19  1  6  0  0  0
  3  4  1  0  0  0  0
  4 20  1  1  0  0  0
  4 10  1  0  0  0  0
  5  6  1  0  0  0  0
  5 14  1  6  0  0  0
  6 21  1  1  0  0  0
  7 13  1  6  0  0  0
  7  6  1  0  0  0  0
  8  9  1  1  0  0  0
  8  7  1  0  0  0  0
 10 16  1  6  0  0  0
 11 10  1  0  0  0  0
 12 17  1  6  0  0  0
 12 11  1  0  0  0  0
 15  9  1  0  0  0  0
 22  8  1  0  0  0  0
 22  1  1  0  0  0  0
M  END
>  <CHROM.1>
169.98701614,56.93944151,-178.42913269,4.66363793,-28.63485282,10.94512895
0.26918825,-0.92548405,0.72539205

>  <Name>
lig.pdb

>  <RI>
0

>  <Rbt.Current_Directory>
/home/itssahil/PROJECTS/Mol_Feturizer/New_Systems/rnas/5bxk

>  <Rbt.Executable>
rbdock ($Id: //depot/dev/client3/rdock/2013.1/src/exe/rbdock.cxx#4 $)

>  <Rbt.Library>
libRbt.so (2013.1, Build901 2013/11/27)

>  <Rbt.Parameter_File>
/export/apps/rDock/src/rDock_2013.1_src/data/scripts/dock_solv.prm

>  <Rbt.Receptor>
prm/blind_docking_40.prm

>  <SCORE>
-4.98618

>  <SCORE.INTER>
-0.919456

>  <SCORE.INTER.CONST>
1

>  <SCORE.INTER.POLAR>
0

>  <SCORE.INTER.ROT>
3

>  <SCORE.INTER.SOLV>
11.693

>  <SCORE.INTER.VDW>
-10.1106

>  <SCORE.INTER.norm>
-0.0417934

>  <SCORE.INTRA>
-4.06712

>  <SCORE.INTRA.DIHEDRAL>
-6.52417

>  <SCORE.INTRA.DIHEDRAL.0>
7.18044

>  <SCORE.INTRA.POLAR>
0

>  <SCORE.INTRA.POLAR.0>
0

>  <SCORE.INTRA.REPUL>
0

>  <SCORE.INTRA.REPUL.0>
0

>  <SCORE.INTRA.SOLV>
-1.78337

>  <SCORE.INTRA.SOLV.lig_0>
-72.0615

>  <SCORE.INTRA.VDW>
0.0866481

>  <SCORE.INTRA.VDW.0>
-1.54792

>  <SCORE.INTRA.norm>
-0.184869

>  <SCORE.RESTR>
0.000399238

>  <SCORE.RESTR.CAVITY>
0.000399238

>  <SCORE.RESTR.norm>
1.81472e-05

>  <SCORE.SYSTEM>
0

>  <SCORE.SYSTEM.CONST>
0

>  <SCORE.SYSTEM.DIHEDRAL>
0

>  <SCORE.SYSTEM.SOLV>
0

>  <SCORE.SYSTEM.norm>
0

>  <SCORE.heavy>
22

>  <SCORE.norm>
-0.226644

>  <RMSD>
29.116

$$$$
lig.pdb
 OpenBabel11021811523D
libRbt.so/2013.1/901 2013/11/27
 22 23  0  0  0  0  0  0  0  0999 V2000
    3.9441  -28.9083   10.0698 C   0  0  1  0  0  0  0  0  0  0  0  0
    3.0988  -27.5703   12.0047 C   0  0  1  0  0  0  0  0  0  0  0  0
    2.8264  -28.7658   13.0936 C   0  0  1  0  0  0  0  0  0  0  0  0
    1.7538  -28.2136   14.1613 C   0  0  2  0  0  0  0  0  0  0  0  0
    5.2540  -29.3471    9.2726 C   0  0  1  0  0  0  0  0  0  0  0  0
    5.7125  -28.2019    8.2877 C   0  0  2  0  0  0  0  0  0  0  0  0
    4.5381  -27.9532    7.2195 C   0  0  1  0  0  0  0  0  0  0  0  0
    3.2000  -27.4351    7.9717 C   0  0  1  0  0  0  0  0  0  0  0  0
    2.0102  -27.1568    7.0117 C   0  0  0  0  0  0  0  0  0  0  0  0
    2.4225  -26.9638   14.9182 C   0  0  1  0  0  0  0  0  0  0  0  0
    2.6891  -25.8178   13.8164 C   0  0  0  0  0  0  0  0  0  0  0  0
    3.7041  -26.3322   12.7086 C   0  0  2  0  0  0  0  0  0  0  0  0
    4.8960  -26.9124    6.2499 F   0  0  0  0  0  0  0  0  0  0  0  0
    6.3037  -29.6713   10.3463 N   0  0  0  0  0  0  0  0  0  0  0  0
    1.6022  -28.2765    6.2448 N   0  0  0  0  0  0  0  0  0  0  0  0
    1.4694  -26.3909   15.9207 N   0  0  0  0  0  0  0  0  0  0  0  0
    3.9418  -25.3087   11.6951 N   0  0  0  0  0  0  0  0  0  0  0  0
    4.0502  -27.9340   11.0301 O   0  0  0  0  0  0  0  0  0  0  0  0
    2.2349  -29.9309   12.3662 O   0  0  0  0  0  0  0  0  0  0  0  0
    1.5190  -29.2192   15.0881 O   0  0  0  0  0  0  0  0  0  0  0  0
    6.6743  -28.5803    7.7246 O   0  0  0  0  0  0  0  0  0  0  0  0
    2.8300  -28.5289    9.0418 O   0  0  0  0  0  0  0  0  0  0  0  0
  1  5  1  0  0  0  0
  1 18  1  1  0  0  0
  2 18  1  6  0  0  0
  2  3  1  0  0  0  0
  2 12  1  0  0  0  0
  3 19  1  6  0  0  0
  3  4  1  0  0  0  0
  4 20  1  1  0  0  0
  4 10  1  0  0  0  0
  5  6  1  0  0  0  0
  5 14  1  1  0  0  0
  6 21  1  6  0  0  0
  7 13  1  6  0  0  0
  7  6  1  0  0  0  0
  8  9  1  6  0  0  0
  8  7  1  0  0  0  0
 10 16  1  1  0  0  0
 11 10  1  0  0  0  0
 12 17  1  6  0  0  0
 12 11  1  0  0  0  0
 15  9  1  0  0  0  0
 22  8  1  0  0  0  0
 22  1  1  0  0  0  0
M  END
>  <CHROM.1>
-167.46576032,65.56554155,58.72598836,3.50176699,-27.89473006,10.66936916
-1.22660019,-0.47915113,1.67047694

>  <Name>
lig.pdb

>  <RI>
0

>  <Rbt.Current_Directory>
/home/itssahil/PROJECTS/Mol_Feturizer/New_Systems/rnas/5bxk

>  <Rbt.Executable>
rbdock ($Id: //depot/dev/client3/rdock/2013.1/src/exe/rbdock.cxx#4 $)

>  <Rbt.Library>
libRbt.so (2013.1, Build901 2013/11/27)

>  <Rbt.Parameter_File>
/export/apps/rDock/src/rDock_2013.1_src/data/scripts/dock_solv.prm

>  <Rbt.Receptor>
prm/blind_docking_60.prm

>  <SCORE>
-4.57225

>  <SCORE.INTER>
-1.17936

>  <SCORE.INTER.CONST>
1

>  <SCORE.INTER.POLAR>
0

>  <SCORE.INTER.ROT>
3

>  <SCORE.INTER.SOLV>
12.6699

>  <SCORE.INTER.VDW>
-10.6095

>  <SCORE.INTER.norm>
-0.0536073

>  <SCORE.INTRA>
-3.39289

>  <SCORE.INTRA.DIHEDRAL>
-6.16769

>  <SCORE.INTRA.DIHEDRAL.0>
7.18044

>  <SCORE.INTRA.POLAR>
0

>  <SCORE.INTRA.POLAR.0>
0

>  <SCORE.INTRA.REPUL>
0

>  <SCORE.INTRA.REPUL.0>
0

>  <SCORE.INTRA.SOLV>
-0.60001

>  <SCORE.INTRA.SOLV.lig_0>
-72.0615

>  <SCORE.INTRA.VDW>
-0.00903414

>  <SCORE.INTRA.VDW.0>
-1.54792

>  <SCORE.INTRA.norm>
-0.154222

>  <SCORE.RESTR>
0

>  <SCORE.RESTR.CAVITY>
0

>  <SCORE.RESTR.norm>
0

>  <SCORE.SYSTEM>
0

>  <SCORE.SYSTEM.CONST>
0

>  <SCORE.SYSTEM.DIHEDRAL>
0

>  <SCORE.SYSTEM.SOLV>
0

>  <SCORE.SYSTEM.norm>
0

>  <SCORE.heavy>
22

>  <SCORE.norm>
-0.207829

>  <RMSD>
29.189

$$$$
lig.pdb
 OpenBabel11021811523D
libRbt.so/2013.1/901 2013/11/27
 22 23  0  0  0  0  0  0  0  0999 V2000
    3.6992  -29.4061   11.0806 C   0  0  1  0  0  0  0  0  0  0  0  0
    2.8657  -27.3793   12.2829 C   0  0  1  0  0  0  0  0  0  0  0  0
    2.4036  -28.0602   13.7015 C   0  0  1  0  0  0  0  0  0  0  0  0
    1.3262  -27.0756   14.3834 C   0  0  2  0  0  0  0  0  0  0  0  0
    4.9647  -30.0942   10.3957 C   0  0  1  0  0  0  0  0  0  0  0  0
    5.3067  -29.3865    9.0270 C   0  0  2  0  0  0  0  0  0  0  0  0
    4.0500  -29.5591    8.0404 C   0  0  1  0  0  0  0  0  0  0  0  0
    2.7501  -28.8139    8.6567 C   0  0  1  0  0  0  0  0  0  0  0  0
    1.4848  -28.9194    7.7611 C   0  0  0  0  0  0  0  0  0  0  0  0
    2.0682  -25.6842   14.6923 C   0  0  1  0  0  0  0  0  0  0  0  0
    2.5203  -25.0535   13.2794 C   0  0  0  0  0  0  0  0  0  0  0  0
    3.5470  -26.0140   12.5409 C   0  0  2  0  0  0  0  0  0  0  0  0
    4.2970  -28.9437    6.7320 F   0  0  0  0  0  0  0  0  0  0  0  0
    6.1003  -29.9912   11.4250 N   0  0  0  0  0  0  0  0  0  0  0  0
    1.0457  -30.2452    7.5214 N   0  0  0  0  0  0  0  0  0  0  0  0
    1.1157  -24.7133   15.3179 N   0  0  0  0  0  0  0  0  0  0  0  0
    3.9522  -25.4617   11.2517 N   0  0  0  0  0  0  0  0  0  0  0  0
    3.8359  -28.1462   11.6065 O   0  0  0  0  0  0  0  0  0  0  0  0
    1.7450  -29.3676   13.3965 O   0  0  0  0  0  0  0  0  0  0  0  0
    0.9313  -27.6439   15.5861 O   0  0  0  0  0  0  0  0  0  0  0  0
    6.2397  -29.9358    8.5653 O   0  0  0  0  0  0  0  0  0  0  0  0
    2.5005  -29.4417   10.0787 O   0  0  0  0  0  0  0  0  0  0  0  0
  1  5  1  0  0  0  0
  1 18  1  6  0  0  0
  2 18  1  1  0  0  0
  2  3  1  0  0  0  0
  2 12  1  0  0  0  0
  3 19  1  6  0  0  0
  3  4  1  0  0  0  0
  4 20  1  1  0  0  0
  4 10  1  0  0  0  0
  5  6  1  0  0  0  0
  5 14  1  1  0  0  0
  6 21  1  6  0  0  0
  7 13  1  6  0  0  0
  7  6  1  0  0  0  0
  8  9  1  6  0  0  0
  8  7  1  0  0  0  0
 10 16  1  6  0  0  0
 11 10  1  0  0  0  0
 12 17  1  6  0  0  0
 12 11  1  0  0  0  0
 15  9  1  0  0  0  0
 22  8  1  0  0  0  0
 22  1  1  0  0  0  0
M  END
>  <CHROM.1>
-178.01638902,64.52146509,60.32783031,3.13569499,-28.18829148,11.18172442
-1.26035481,-0.11213522,1.12868592

>  <Name>
lig.pdb

>  <RI>
0

>  <Rbt.Current_Directory>
/home/itssahil/PROJECTS/Mol_Feturizer/New_Systems/rnas/5bxk

>  <Rbt.Executable>
rbdock ($Id: //depot/dev/client3/rdock/2013.1/src/exe/rbdock.cxx#4 $)

>  <Rbt.Library>
libRbt.so (2013.1, Build901 2013/11/27)

>  <Rbt.Parameter_File>
/export/apps/rDock/src/rDock_2013.1_src/data/scripts/dock_solv.prm

>  <Rbt.Receptor>
prm/blind_docking_100.prm

>  <SCORE>
-4.78302

>  <SCORE.INTER>
-0.956612

>  <SCORE.INTER.CONST>
1

>  <SCORE.INTER.POLAR>
0

>  <SCORE.INTER.ROT>
3

>  <SCORE.INTER.SOLV>
15.804

>  <SCORE.INTER.VDW>
-11.5057

>  <SCORE.INTER.norm>
-0.0434823

>  <SCORE.INTRA>
-3.82641

>  <SCORE.INTRA.DIHEDRAL>
-6.92547

>  <SCORE.INTRA.DIHEDRAL.0>
7.18044

>  <SCORE.INTRA.POLAR>
0

>  <SCORE.INTRA.POLAR.0>
0

>  <SCORE.INTRA.REPUL>
0

>  <SCORE.INTRA.REPUL.0>
0

>  <SCORE.INTRA.SOLV>
-0.696649

>  <SCORE.INTRA.SOLV.lig_0>
-72.0615

>  <SCORE.INTRA.VDW>
-0.0153442

>  <SCORE.INTRA.VDW.0>
-1.54792

>  <SCORE.INTRA.norm>
-0.173928

>  <SCORE.RESTR>
0

>  <SCORE.RESTR.CAVITY>
0

>  <SCORE.RESTR.norm>
0

>  <SCORE.SYSTEM>
0

>  <SCORE.SYSTEM.CONST>
0

>  <SCORE.SYSTEM.DIHEDRAL>
0

>  <SCORE.SYSTEM.SOLV>
0

>  <SCORE.SYSTEM.norm>
0

>  <SCORE.heavy>
22

>  <SCORE.norm>
-0.21741

>  <RMSD>
29.200

$$$$
lig.pdb
 OpenBabel11021811523D
libRbt.so/2013.1/901 2013/11/27
 22 23  0  0  0  0  0  0  0  0999 V2000
    6.8963  -28.8734    7.9814 C   0  0  1  0  0  0  0  0  0  0  0  0
    5.4760  -27.3474    9.3607 C   0  0  1  0  0  0  0  0  0  0  0  0
    6.6840  -26.4337    9.9893 C   0  0  1  0  0  0  0  0  0  0  0  0
    6.1134  -25.7235   11.3179 C   0  0  2  0  0  0  0  0  0  0  0  0
    7.0259  -29.6227    6.5794 C   0  0  1  0  0  0  0  0  0  0  0  0
    5.8827  -30.6991    6.4189 C   0  0  2  0  0  0  0  0  0  0  0  0
    6.0491  -31.7914    7.5857 C   0  0  1  0  0  0  0  0  0  0  0  0
    5.8546  -31.0940    9.0351 C   0  0  1  0  0  0  0  0  0  0  0  0
    5.9881  -32.0810   10.2277 C   0  0  0  0  0  0  0  0  0  0  0  0
    4.9094  -24.7572   10.8721 C   0  0  1  0  0  0  0  0  0  0  0  0
    3.7502  -25.6866   10.2467 C   0  0  0  0  0  0  0  0  0  0  0  0
    4.2798  -26.4512    8.9595 C   0  0  2  0  0  0  0  0  0  0  0  0
    5.0319  -32.8443    7.4943 F   0  0  0  0  0  0  0  0  0  0  0  0
    6.9654  -28.5192    5.5124 N   0  0  0  0  0  0  0  0  0  0  0  0
    5.8283  -31.4839   11.5029 N   0  0  0  0  0  0  0  0  0  0  0  0
    4.3214  -24.0722   12.0665 N   0  0  0  0  0  0  0  0  0  0  0  0
    3.2439  -27.3094    8.3924 N   0  0  0  0  0  0  0  0  0  0  0  0
    5.8556  -27.9993    8.1699 O   0  0  0  0  0  0  0  0  0  0  0  0
    7.8073  -27.3455   10.3679 O   0  0  0  0  0  0  0  0  0  0  0  0
    7.1296  -24.9463   11.8553 O   0  0  0  0  0  0  0  0  0  0  0  0
    6.0300  -31.2223    5.3749 O   0  0  0  0  0  0  0  0  0  0  0  0
    6.9177  -29.9365    9.1266 O   0  0  0  0  0  0  0  0  0  0  0  0
  1  5  1  0  0  0  0
  1 18  1  6  0  0  0
  2 18  1  6  0  0  0
  2  3  1  0  0  0  0
  2 12  1  0  0  0  0
  3 19  1  1  0  0  0
  3  4  1  0  0  0  0
  4 20  1  6  0  0  0
  4 10  1  0  0  0  0
  5  6  1  0  0  0  0
  5 14  1  6  0  0  0
  6 21  1  6  0  0  0
  7 13  1  6  0  0  0
  7  6  1  0  0  0  0
  8  9  1  1  0  0  0
  8  7  1  0  0  0  0
 10 16  1  1  0  0  0
 11 10  1  0  0  0  0
 12 17  1  1  0  0  0
 12 11  1  0  0  0  0
 15  9  1  0  0  0  0
 22  8  1  0  0  0  0
 22  1  1  0  0  0  0
M  END
>  <CHROM.1>
172.72703901,57.93214970,179.64080281,5.83380169,-28.53556356,9.00105800
0.83888095,1.44674832,-1.87573245

>  <Name>
lig.pdb

>  <RI>
0

>  <Rbt.Current_Directory>
/home/itssahil/PROJECTS/Mol_Feturizer/New_Systems/rnas/5bxk

>  <Rbt.Executable>
rbdock ($Id: //depot/dev/client3/rdock/2013.1/src/exe/rbdock.cxx#4 $)

>  <Rbt.Library>
libRbt.so (2013.1, Build901 2013/11/27)

>  <Rbt.Parameter_File>
/export/apps/rDock/src/rDock_2013.1_src/data/scripts/dock_solv.prm

>  <Rbt.Receptor>
prm/blind_docking_60.prm

>  <SCORE>
-6.02373

>  <SCORE.INTER>
-1.81066

>  <SCORE.INTER.CONST>
1

>  <SCORE.INTER.POLAR>
0

>  <SCORE.INTER.ROT>
3

>  <SCORE.INTER.SOLV>
16.3563

>  <SCORE.INTER.VDW>
-12.2592

>  <SCORE.INTER.norm>
-0.0823025

>  <SCORE.INTRA>
-4.21307

>  <SCORE.INTRA.DIHEDRAL>
-6.77528

>  <SCORE.INTRA.DIHEDRAL.0>
7.18044

>  <SCORE.INTRA.POLAR>
0

>  <SCORE.INTRA.POLAR.0>
0

>  <SCORE.INTRA.REPUL>
0

>  <SCORE.INTRA.REPUL.0>
0

>  <SCORE.INTRA.SOLV>
-1.79293

>  <SCORE.INTRA.SOLV.lig_0>
-72.0615

>  <SCORE.INTRA.VDW>
0.0710329

>  <SCORE.INTRA.VDW.0>
-1.54792

>  <SCORE.INTRA.norm>
-0.191503

>  <SCORE.RESTR>
0

>  <SCORE.RESTR.CAVITY>
0

>  <SCORE.RESTR.norm>
0

>  <SCORE.SYSTEM>
0

>  <SCORE.SYSTEM.CONST>
0

>  <SCORE.SYSTEM.DIHEDRAL>
0

>  <SCORE.SYSTEM.SOLV>
0

>  <SCORE.SYSTEM.norm>
0

>  <SCORE.heavy>
22

>  <SCORE.norm>
-0.273806

>  <RMSD>
29.338

$$$$
lig.pdb
 OpenBabel11021811523D
libRbt.so/2013.1/901 2013/11/27
 22 23  0  0  0  0  0  0  0  0999 V2000
    6.9575  -28.8745    8.0169 C   0  0  1  0  0  0  0  0  0  0  0  0
    5.5088  -27.3166    9.3293 C   0  0  1  0  0  0  0  0  0  0  0  0
    6.7027  -26.3803    9.9515 C   0  0  1  0  0  0  0  0  0  0  0  0
    6.1076  -25.6356   11.2501 C   0  0  2  0  0  0  0  0  0  0  0  0
    7.1218  -29.6510    6.6333 C   0  0  1  0  0  0  0  0  0  0  0  0
    5.9854  -30.7338    6.4676 C   0  0  2  0  0  0  0  0  0  0  0  0
    6.1273  -31.8024    7.6594 C   0  0  1  0  0  0  0  0  0  0  0  0
    5.8972  -31.0770    9.0897 C   0  0  1  0  0  0  0  0  0  0  0  0
    6.0053  -32.0399   10.3045 C   0  0  0  0  0  0  0  0  0  0  0  0
    4.9071  -24.6877   10.7578 C   0  0  1  0  0  0  0  0  0  0  0  0
    3.7621  -25.6394   10.1400 C   0  0  0  0  0  0  0  0  0  0  0  0
    4.3158  -26.4375    8.8837 C   0  0  2  0  0  0  0  0  0  0  0  0
    5.1153  -32.8600    7.5652 F   0  0  0  0  0  0  0  0  0  0  0  0
    7.0835  -28.5689    5.5436 N   0  0  0  0  0  0  0  0  0  0  0  0
    7.2990  -32.5806   10.5099 N   0  0  0  0  0  0  0  0  0  0  0  0
    4.2969  -23.9719   11.9226 N   0  0  0  0  0  0  0  0  0  0  0  0
    3.2928  -27.3159    8.3241 N   0  0  0  0  0  0  0  0  0  0  0  0
    5.9105  -28.0001    8.1636 O   0  0  0  0  0  0  0  0  0  0  0  0
    7.8232  -27.2761   10.3738 O   0  0  0  0  0  0  0  0  0  0  0  0
    7.1117  -24.8392   11.7820 O   0  0  0  0  0  0  0  0  0  0  0  0
    6.1584  -31.2770    5.4379 O   0  0  0  0  0  0  0  0  0  0  0  0
    6.9549  -29.9147    9.1830 O   0  0  0  0  0  0  0  0  0  0  0  0
  1  5  1  0  0  0  0
  1 18  1  6  0  0  0
  2 18  1  6  0  0  0
  2  3  1  0  0  0  0
  2 12  1  0  0  0  0
  3 19  1  1  0  0  0
  3  4  1  0  0  0  0
  4 20  1  6  0  0  0
  4 10  1  0  0  0  0
  5  6  1  0  0  0  0
  5 14  1  6  0  0  0
  6 21  1  6  0  0  0
  7 13  1  6  0  0  0
  7  6  1  0  0  0  0
  8  9  1  1  0  0  0
  8  7  1  0  0  0  0
 10 16  1  1  0  0  0
 11 10  1  0  0  0  0
 12 17  1  1  0  0  0
 12 11  1  0  0  0  0
 15  9  1  0  0  0  0
 22  8  1  0  0  0  0
 22  1  1  0  0  0  0
M  END
>  <CHROM.1>
173.35170567,57.93947255,65.99764177,5.94257725,-28.56412866,8.95134114,1.22379098
1.22475636,-2.33572601

>  <Name>
lig.pdb

>  <RI>
0

>  <Rbt.Current_Directory>
/home/itssahil/PROJECTS/Mol_Feturizer/New_Systems/rnas/5bxk

>  <Rbt.Executable>
rbdock ($Id: //depot/dev/client3/rdock/2013.1/src/exe/rbdock.cxx#4 $)

>  <Rbt.Library>
libRbt.so (2013.1, Build901 2013/11/27)

>  <Rbt.Parameter_File>
/export/apps/rDock/src/rDock_2013.1_src/data/scripts/dock_solv.prm

>  <Rbt.Receptor>
prm/blind_docking_60.prm

>  <SCORE>
-5.9882

>  <SCORE.INTER>
-2.24324

>  <SCORE.INTER.CONST>
1

>  <SCORE.INTER.POLAR>
0

>  <SCORE.INTER.ROT>
3

>  <SCORE.INTER.SOLV>
16.6313

>  <SCORE.INTER.VDW>
-12.6393

>  <SCORE.INTER.norm>
-0.101965

>  <SCORE.INTRA>
-3.74496

>  <SCORE.INTRA.DIHEDRAL>
-6.68594

>  <SCORE.INTRA.DIHEDRAL.0>
7.18044

>  <SCORE.INTRA.POLAR>
0

>  <SCORE.INTRA.POLAR.0>
0

>  <SCORE.INTRA.REPUL>
0

>  <SCORE.INTRA.REPUL.0>
0

>  <SCORE.INTRA.SOLV>
-0.794627

>  <SCORE.INTRA.SOLV.lig_0>
-72.0615

>  <SCORE.INTRA.VDW>
-0.00467446

>  <SCORE.INTRA.VDW.0>
-1.54792

>  <SCORE.INTRA.norm>
-0.170225

>  <SCORE.RESTR>
0

>  <SCORE.RESTR.CAVITY>
0

>  <SCORE.RESTR.norm>
0

>  <SCORE.SYSTEM>
0

>  <SCORE.SYSTEM.CONST>
0

>  <SCORE.SYSTEM.DIHEDRAL>
0

>  <SCORE.SYSTEM.SOLV>
0

>  <SCORE.SYSTEM.norm>
0

>  <SCORE.heavy>
22

>  <SCORE.norm>
-0.272191

>  <RMSD>
29.339

$$$$
lig.pdb
 OpenBabel11021811523D
libRbt.so/2013.1/901 2013/11/27
 22 23  0  0  0  0  0  0  0  0999 V2000
    3.5443  -29.4333   10.7569 C   0  0  1  0  0  0  0  0  0  0  0  0
    2.7932  -27.4504   12.0808 C   0  0  1  0  0  0  0  0  0  0  0  0
    2.3945  -28.1802   13.4942 C   0  0  1  0  0  0  0  0  0  0  0  0
    1.3612  -27.2135   14.2641 C   0  0  2  0  0  0  0  0  0  0  0  0
    4.7887  -30.1390   10.0516 C   0  0  1  0  0  0  0  0  0  0  0  0
    5.1617  -29.3936    8.7113 C   0  0  2  0  0  0  0  0  0  0  0  0
    3.9047  -29.4861    7.7144 C   0  0  1  0  0  0  0  0  0  0  0  0
    2.6282  -28.7196    8.3532 C   0  0  1  0  0  0  0  0  0  0  0  0
    1.3644  -28.7482    7.4497 C   0  0  0  0  0  0  0  0  0  0  0  0
    2.1307  -25.8405   14.5874 C   0  0  1  0  0  0  0  0  0  0  0  0
    2.5192  -25.1609   13.1783 C   0  0  0  0  0  0  0  0  0  0  0  0
    3.4994  -26.1011   12.3552 C   0  0  2  0  0  0  0  0  0  0  0  0
    4.1792  -28.8318    6.4306 F   0  0  0  0  0  0  0  0  0  0  0  0
    5.9222  -30.1134   11.0882 N   0  0  0  0  0  0  0  0  0  0  0  0
    1.5148  -28.0769    6.2108 N   0  0  0  0  0  0  0  0  0  0  0  0
    1.2193  -24.8862   15.2945 N   0  0  0  0  0  0  0  0  0  0  0  0
    3.8464  -25.5042   11.0689 N   0  0  0  0  0  0  0  0  0  0  0  0
    3.7219  -28.1991   11.3296 O   0  0  0  0  0  0  0  0  0  0  0  0
    1.7092  -29.4702   13.1738 O   0  0  0  0  0  0  0  0  0  0  0  0
    1.0200  -27.8233   15.4630 O   0  0  0  0  0  0  0  0  0  0  0  0
    6.0774  -29.9575    8.2330 O   0  0  0  0  0  0  0  0  0  0  0  0
    2.3501  -29.3904    9.7500 O   0  0  0  0  0  0  0  0  0  0  0  0
  1  5  1  0  0  0  0
  1 18  1  6  0  0  0
  2 18  1  1  0  0  0
  2  3  1  0  0  0  0
  2 12  1  0  0  0  0
  3 19  1  6  0  0  0
  3  4  1  0  0  0  0
  4 20  1  1  0  0  0
  4 10  1  0  0  0  0
  5  6  1  0  0  0  0
  5 14  1  1  0  0  0
  6 21  1  6  0  0  0
  7 13  1  6  0  0  0
  7  6  1  0  0  0  0
  8  9  1  6  0  0  0
  8  7  1  0  0  0  0
 10 16  1  6  0  0  0
 11 10  1  0  0  0  0
 12 17  1  6  0  0  0
 12 11  1  0  0  0  0
 15  9  1  0  0  0  0
 22  8  1  0  0  0  0
 22  1  1  0  0  0  0
M  END
>  <CHROM.1>
-174.95230557,65.02160495,-63.58705578,3.08472610,-28.13250861,10.89545646
-1.18527064,-0.73526925,1.44749554

>  <Name>
lig.pdb

>  <RI>
0

>  <Rbt.Current_Directory>
/home/itssahil/PROJECTS/Mol_Feturizer/New_Systems/rnas/5bxk

>  <Rbt.Executable>
rbdock ($Id: //depot/dev/client3/rdock/2013.1/src/exe/rbdock.cxx#4 $)

>  <Rbt.Library>
libRbt.so (2013.1, Build901 2013/11/27)

>  <Rbt.Parameter_File>
/export/apps/rDock/src/rDock_2013.1_src/data/scripts/dock_solv.prm

>  <Rbt.Receptor>
prm/blind_docking_40.prm

>  <SCORE>
-5.97974

>  <SCORE.INTER>
-2.27424

>  <SCORE.INTER.CONST>
1

>  <SCORE.INTER.POLAR>
0

>  <SCORE.INTER.ROT>
3

>  <SCORE.INTER.SOLV>
11.7907

>  <SCORE.INTER.VDW>
-11.0464

>  <SCORE.INTER.norm>
-0.103374

>  <SCORE.INTRA>
-3.70551

>  <SCORE.INTRA.DIHEDRAL>
-6.75529

>  <SCORE.INTRA.DIHEDRAL.0>
7.18044

>  <SCORE.INTRA.POLAR>
0

>  <SCORE.INTRA.POLAR.0>
0

>  <SCORE.INTRA.REPUL>
0

>  <SCORE.INTRA.REPUL.0>
0

>  <SCORE.INTRA.SOLV>
-0.83222

>  <SCORE.INTRA.SOLV.lig_0>
-72.0615

>  <SCORE.INTRA.VDW>
0.0882452

>  <SCORE.INTRA.VDW.0>
-1.54792

>  <SCORE.INTRA.norm>
-0.168432

>  <SCORE.RESTR>
0

>  <SCORE.RESTR.CAVITY>
0

>  <SCORE.RESTR.norm>
0

>  <SCORE.SYSTEM>
0

>  <SCORE.SYSTEM.CONST>
0

>  <SCORE.SYSTEM.DIHEDRAL>
0

>  <SCORE.SYSTEM.SOLV>
0

>  <SCORE.SYSTEM.norm>
0

>  <SCORE.heavy>
22

>  <SCORE.norm>
-0.271807

>  <RMSD>
29.348

$$$$
lig.pdb
 OpenBabel11021811523D
libRbt.so/2013.1/901 2013/11/27
 22 23  0  0  0  0  0  0  0  0999 V2000
    3.5864  -29.5217   10.7411 C   0  0  1  0  0  0  0  0  0  0  0  0
    2.8382  -27.5514   12.0852 C   0  0  1  0  0  0  0  0  0  0  0  0
    2.4216  -28.2878   13.4900 C   0  0  1  0  0  0  0  0  0  0  0  0
    1.3857  -27.3204   14.2557 C   0  0  2  0  0  0  0  0  0  0  0  0
    4.8250  -30.2156   10.0142 C   0  0  1  0  0  0  0  0  0  0  0  0
    5.1925  -29.4430    8.6878 C   0  0  2  0  0  0  0  0  0  0  0  0
    3.9298  -29.5113    7.6962 C   0  0  1  0  0  0  0  0  0  0  0  0
    2.6589  -28.7552    8.3581 C   0  0  1  0  0  0  0  0  0  0  0  0
    1.3900  -28.7615    7.4613 C   0  0  0  0  0  0  0  0  0  0  0  0
    2.1592  -25.9535   14.5952 C   0  0  1  0  0  0  0  0  0  0  0  0
    2.5654  -25.2673   13.1943 C   0  0  0  0  0  0  0  0  0  0  0  0
    3.5487  -26.2075   12.3751 C   0  0  2  0  0  0  0  0  0  0  0  0
    4.1989  -28.8308    6.4250 F   0  0  0  0  0  0  0  0  0  0  0  0
    5.9642  -30.2147   11.0447 N   0  0  0  0  0  0  0  0  0  0  0  0
    1.5358  -28.0657    6.2354 N   0  0  0  0  0  0  0  0  0  0  0  0
    1.2457  -24.9988   15.2991 N   0  0  0  0  0  0  0  0  0  0  0  0
    3.9118  -25.6045   11.0961 N   0  0  0  0  0  0  0  0  0  0  0  0
    3.7704  -28.3003   11.3386 O   0  0  0  0  0  0  0  0  0  0  0  0
    1.7327  -29.5721   13.1547 O   0  0  0  0  0  0  0  0  0  0  0  0
    1.0294  -27.9358   15.4472 O   0  0  0  0  0  0  0  0  0  0  0  0
    6.1041  -29.9991    8.1926 O   0  0  0  0  0  0  0  0  0  0  0  0
    2.3867  -29.4546    9.7421 O   0  0  0  0  0  0  0  0  0  0  0  0
  1  5  1  0  0  0  0
  1 18  1  6  0  0  0
  2 18  1  1  0  0  0
  2  3  1  0  0  0  0
  2 12  1  0  0  0  0
  3 19  1  6  0  0  0
  3  4  1  0  0  0  0
  4 20  1  1  0  0  0
  4 10  1  0  0  0  0
  5  6  1  0  0  0  0
  5 14  1  1  0  0  0
  6 21  1  6  0  0  0
  7 13  1  6  0  0  0
  7  6  1  0  0  0  0
  8  9  1  6  0  0  0
  8  7  1  0  0  0  0
 10 16  1  6  0  0  0
 11 10  1  0  0  0  0
 12 17  1  6  0  0  0
 12 11  1  0  0  0  0
 15  9  1  0  0  0  0
 22  8  1  0  0  0  0
 22  1  1  0  0  0  0
M  END
>  <CHROM.1>
-176.52514241,65.99448953,-63.53001386,3.11755529,-28.20654076,10.89022110
-1.18173162,-0.73479870,1.46095212

>  <Name>
lig.pdb

>  <RI>
0

>  <Rbt.Current_Directory>
/home/itssahil/PROJECTS/Mol_Feturizer/New_Systems/rnas/5bxk

>  <Rbt.Executable>
rbdock ($Id: //depot/dev/client3/rdock/2013.1/src/exe/rbdock.cxx#4 $)

>  <Rbt.Library>
libRbt.so (2013.1, Build901 2013/11/27)

>  <Rbt.Parameter_File>
/export/apps/rDock/src/rDock_2013.1_src/data/scripts/dock_solv.prm

>  <Rbt.Receptor>
prm/blind_docking_60.prm

>  <SCORE>
-5.89743

>  <SCORE.INTER>
-2.18186

>  <SCORE.INTER.CONST>
1

>  <SCORE.INTER.POLAR>
0

>  <SCORE.INTER.ROT>
3

>  <SCORE.INTER.SOLV>
11.6105

>  <SCORE.INTER.VDW>
-10.9248

>  <SCORE.INTER.norm>
-0.0991755

>  <SCORE.INTRA>
-3.71557

>  <SCORE.INTRA.DIHEDRAL>
-6.76772

>  <SCORE.INTRA.DIHEDRAL.0>
7.18044

>  <SCORE.INTRA.POLAR>
0

>  <SCORE.INTRA.POLAR.0>
0

>  <SCORE.INTRA.REPUL>
0

>  <SCORE.INTRA.REPUL.0>
0

>  <SCORE.INTRA.SOLV>
-0.818107

>  <SCORE.INTRA.SOLV.lig_0>
-72.0615

>  <SCORE.INTRA.VDW>
0.0773464

>  <SCORE.INTRA.VDW.0>
-1.54792

>  <SCORE.INTRA.norm>
-0.168889

>  <SCORE.RESTR>
0

>  <SCORE.RESTR.CAVITY>
0

>  <SCORE.RESTR.norm>
0

>  <SCORE.SYSTEM>
0

>  <SCORE.SYSTEM.CONST>
0

>  <SCORE.SYSTEM.DIHEDRAL>
0

>  <SCORE.SYSTEM.SOLV>
0

>  <SCORE.SYSTEM.norm>
0

>  <SCORE.heavy>
22

>  <SCORE.norm>
-0.268065

>  <RMSD>
29.386

$$$$
lig.pdb
 OpenBabel11021811523D
libRbt.so/2013.1/901 2013/11/27
 22 23  0  0  0  0  0  0  0  0999 V2000
    3.6631  -29.6143   10.7880 C   0  0  1  0  0  0  0  0  0  0  0  0
    2.9562  -27.6220   12.1220 C   0  0  1  0  0  0  0  0  0  0  0  0
    2.4527  -28.3901   13.4805 C   0  0  1  0  0  0  0  0  0  0  0  0
    1.4460  -27.3978   14.2534 C   0  0  2  0  0  0  0  0  0  0  0  0
    4.8782  -30.3213   10.0346 C   0  0  1  0  0  0  0  0  0  0  0  0
    5.2186  -29.5585    8.6953 C   0  0  2  0  0  0  0  0  0  0  0  0
    3.9313  -29.6225    7.7355 C   0  0  1  0  0  0  0  0  0  0  0  0
    2.6827  -28.8534    8.4244 C   0  0  1  0  0  0  0  0  0  0  0  0
    1.3921  -28.8549    7.5591 C   0  0  0  0  0  0  0  0  0  0  0  0
    2.2813  -26.0913   14.6745 C   0  0  1  0  0  0  0  0  0  0  0  0
    2.7715  -25.3729   13.3173 C   0  0  0  0  0  0  0  0  0  0  0  0
    3.7290  -26.3329   12.4906 C   0  0  2  0  0  0  0  0  0  0  0  0
    4.1740  -28.9507    6.4544 F   0  0  0  0  0  0  0  0  0  0  0  0
    6.0424  -30.3235   11.0367 N   0  0  0  0  0  0  0  0  0  0  0  0
    1.5127  -28.1665    6.3263 N   0  0  0  0  0  0  0  0  0  0  0  0
    1.3982  -25.1161   15.3891 N   0  0  0  0  0  0  0  0  0  0  0  0
    4.1675  -25.7000   11.2503 N   0  0  0  0  0  0  0  0  0  0  0  0
    3.8707  -28.3912   11.3741 O   0  0  0  0  0  0  0  0  0  0  0  0
    1.7063  -29.6191   13.0698 O   0  0  0  0  0  0  0  0  0  0  0  0
    1.0165  -28.0399   15.4061 O   0  0  0  0  0  0  0  0  0  0  0  0
    6.1135  -30.1239    8.1809 O   0  0  0  0  0  0  0  0  0  0  0  0
    2.4396  -29.5434    9.8184 O   0  0  0  0  0  0  0  0  0  0  0  0
  1  5  1  0  0  0  0
  1 18  1  6  0  0  0
  2 18  1  1  0  0  0
  2  3  1  0  0  0  0
  2 12  1  0  0  0  0
  3 19  1  6  0  0  0
  3  4  1  0  0  0  0
  4 20  1  1  0  0  0
  4 10  1  0  0  0  0
  5  6  1  0  0  0  0
  5 14  1  1  0  0  0
  6 21  1  6  0  0  0
  7 13  1  6  0  0  0
  7  6  1  0  0  0  0
  8  9  1  6  0  0  0
  8  7  1  0  0  0  0
 10 16  1  6  0  0  0
 11 10  1  0  0  0  0
 12 17  1  6  0  0  0
 12 11  1  0  0  0  0
 15  9  1  0  0  0  0
 22  8  1  0  0  0  0
 22  1  1  0  0  0  0
M  END
>  <CHROM.1>
-177.59952046,61.67517388,-63.53606651,3.18119314,-28.30794975,10.93180399
-1.22909066,-0.63194488,1.39432374

>  <Name>
lig.pdb

>  <RI>
0

>  <Rbt.Current_Directory>
/home/itssahil/PROJECTS/Mol_Feturizer/New_Systems/rnas/5bxk

>  <Rbt.Executable>
rbdock ($Id: //depot/dev/client3/rdock/2013.1/src/exe/rbdock.cxx#4 $)

>  <Rbt.Library>
libRbt.so (2013.1, Build901 2013/11/27)

>  <Rbt.Parameter_File>
/export/apps/rDock/src/rDock_2013.1_src/data/scripts/dock_solv.prm

>  <Rbt.Receptor>
prm/blind_docking_60.prm

>  <SCORE>
-5.8403

>  <SCORE.INTER>
-2.03353

>  <SCORE.INTER.CONST>
1

>  <SCORE.INTER.POLAR>
0

>  <SCORE.INTER.ROT>
3

>  <SCORE.INTER.SOLV>
11.109

>  <SCORE.INTER.VDW>
-10.6587

>  <SCORE.INTER.norm>
-0.0924332

>  <SCORE.INTRA>
-3.80677

>  <SCORE.INTRA.DIHEDRAL>
-6.95947

>  <SCORE.INTRA.DIHEDRAL.0>
7.18044

>  <SCORE.INTRA.POLAR>
0

>  <SCORE.INTRA.POLAR.0>
0

>  <SCORE.INTRA.REPUL>
0

>  <SCORE.INTRA.REPUL.0>
0

>  <SCORE.INTRA.SOLV>
-0.884508

>  <SCORE.INTRA.SOLV.lig_0>
-72.0615

>  <SCORE.INTRA.VDW>
0.115218

>  <SCORE.INTRA.VDW.0>
-1.54792

>  <SCORE.INTRA.norm>
-0.173035

>  <SCORE.RESTR>
0

>  <SCORE.RESTR.CAVITY>
0

>  <SCORE.RESTR.norm>
0

>  <SCORE.SYSTEM>
0

>  <SCORE.SYSTEM.CONST>
0

>  <SCORE.SYSTEM.DIHEDRAL>
0

>  <SCORE.SYSTEM.SOLV>
0

>  <SCORE.SYSTEM.norm>
0

>  <SCORE.heavy>
22

>  <SCORE.norm>
-0.265468

>  <RMSD>
29.392

$$$$
lig.pdb
 OpenBabel11021811523D
libRbt.so/2013.1/901 2013/11/27
 22 23  0  0  0  0  0  0  0  0999 V2000
    3.5669  -29.5168   10.7266 C   0  0  1  0  0  0  0  0  0  0  0  0
    2.8265  -27.5461   12.0744 C   0  0  1  0  0  0  0  0  0  0  0  0
    2.4169  -28.2823   13.4813 C   0  0  1  0  0  0  0  0  0  0  0  0
    1.3854  -27.3145   14.2523 C   0  0  2  0  0  0  0  0  0  0  0  0
    4.8025  -30.2132    9.9969 C   0  0  1  0  0  0  0  0  0  0  0  0
    5.1679  -29.4419    8.6691 C   0  0  2  0  0  0  0  0  0  0  0  0
    3.9025  -29.5086    7.6808 C   0  0  1  0  0  0  0  0  0  0  0  0
    2.6346  -28.7500    8.3455 C   0  0  1  0  0  0  0  0  0  0  0  0
    1.3634  -28.7547    7.4519 C   0  0  0  0  0  0  0  0  0  0  0  0
    2.1612  -25.9479   14.5878 C   0  0  1  0  0  0  0  0  0  0  0  0
    2.5604  -25.2619   13.1848 C   0  0  0  0  0  0  0  0  0  0  0  0
    3.5390  -26.2025   12.3605 C   0  0  2  0  0  0  0  0  0  0  0  0
    4.1695  -28.8293    6.4085 F   0  0  0  0  0  0  0  0  0  0  0  0
    5.9443  -30.2136   11.0245 N   0  0  0  0  0  0  0  0  0  0  0  0
    1.5146  -28.0798    6.2150 N   0  0  0  0  0  0  0  0  0  0  0  0
    1.2519  -24.9928   15.2965 N   0  0  0  0  0  0  0  0  0  0  0  0
    3.8956  -25.5997   11.0796 N   0  0  0  0  0  0  0  0  0  0  0  0
    3.7544  -28.2954   11.3229 O   0  0  0  0  0  0  0  0  0  0  0  0
    1.7258  -29.5664   13.1497 O   0  0  0  0  0  0  0  0  0  0  0  0
    1.0350  -27.9297   15.4457 O   0  0  0  0  0  0  0  0  0  0  0  0
    6.0772  -29.9998    8.1719 O   0  0  0  0  0  0  0  0  0  0  0  0
    2.3648  -29.4482    9.7305 O   0  0  0  0  0  0  0  0  0  0  0  0
  1  5  1  0  0  0  0
  1 18  1  6  0  0  0
  2 18  1  1  0  0  0
  2  3  1  0  0  0  0
  2 12  1  0  0  0  0
  3 19  1  6  0  0  0
  3  4  1  0  0  0  0
  4 20  1  1  0  0  0
  4 10  1  0  0  0  0
  5  6  1  0  0  0  0
  5 14  1  1  0  0  0
  6 21  1  6  0  0  0
  7 13  1  6  0  0  0
  7  6  1  0  0  0  0
  8  9  1  6  0  0  0
  8  7  1  0  0  0  0
 10 16  1  6  0  0  0
 11 10  1  0  0  0  0
 12 17  1  6  0  0  0
 12 11  1  0  0  0  0
 15  9  1  0  0  0  0
 22  8  1  0  0  0  0
 22  1  1  0  0  0  0
M  END
>  <CHROM.1>
-176.34811550,65.98574227,-62.47806999,3.10276298,-28.20303769,10.87777144
-1.18704132,-0.73694643,1.45786037

>  <Name>
lig.pdb

>  <RI>
0

>  <Rbt.Current_Directory>
/home/itssahil/PROJECTS/Mol_Feturizer/New_Systems/rnas/5bxk

>  <Rbt.Executable>
rbdock ($Id: //depot/dev/client3/rdock/2013.1/src/exe/rbdock.cxx#4 $)

>  <Rbt.Library>
libRbt.so (2013.1, Build901 2013/11/27)

>  <Rbt.Parameter_File>
/export/apps/rDock/src/rDock_2013.1_src/data/scripts/dock_solv.prm

>  <Rbt.Receptor>
prm/blind_docking_40.prm

>  <SCORE>
-5.93515

>  <SCORE.INTER>
-2.22689

>  <SCORE.INTER.CONST>
1

>  <SCORE.INTER.POLAR>
0

>  <SCORE.INTER.ROT>
3

>  <SCORE.INTER.SOLV>
11.701

>  <SCORE.INTER.VDW>
-10.9849

>  <SCORE.INTER.norm>
-0.101222

>  <SCORE.INTRA>
-3.70826

>  <SCORE.INTRA.DIHEDRAL>
-6.78482

>  <SCORE.INTRA.DIHEDRAL.0>
7.18044

>  <SCORE.INTRA.POLAR>
0

>  <SCORE.INTRA.POLAR.0>
0

>  <SCORE.INTRA.REPUL>
0

>  <SCORE.INTRA.REPUL.0>
0

>  <SCORE.INTRA.SOLV>
-0.803454

>  <SCORE.INTRA.SOLV.lig_0>
-72.0615

>  <SCORE.INTRA.VDW>
0.0858756

>  <SCORE.INTRA.VDW.0>
-1.54792

>  <SCORE.INTRA.norm>
-0.168557

>  <SCORE.RESTR>
0

>  <SCORE.RESTR.CAVITY>
0

>  <SCORE.RESTR.norm>
0

>  <SCORE.SYSTEM>
0

>  <SCORE.SYSTEM.CONST>
0

>  <SCORE.SYSTEM.DIHEDRAL>
0

>  <SCORE.SYSTEM.SOLV>
0

>  <SCORE.SYSTEM.norm>
0

>  <SCORE.heavy>
22

>  <SCORE.norm>
-0.26978

>  <RMSD>
29.397

$$$$
lig.pdb
 OpenBabel11021811523D
libRbt.so/2013.1/901 2013/11/27
 22 23  0  0  0  0  0  0  0  0999 V2000
    3.5923  -29.5702   10.6945 C   0  0  1  0  0  0  0  0  0  0  0  0
    2.9189  -27.5682   12.0312 C   0  0  1  0  0  0  0  0  0  0  0  0
    2.4673  -28.2911   13.4322 C   0  0  1  0  0  0  0  0  0  0  0  0
    1.4704  -27.2836   14.1979 C   0  0  2  0  0  0  0  0  0  0  0  0
    4.7981  -30.3016    9.9494 C   0  0  1  0  0  0  0  0  0  0  0  0
    5.1657  -29.5435    8.6147 C   0  0  2  0  0  0  0  0  0  0  0  0
    3.8852  -29.5779    7.6443 C   0  0  1  0  0  0  0  0  0  0  0  0
    2.6479  -28.7836    8.3247 C   0  0  1  0  0  0  0  0  0  0  0  0
    1.3647  -28.7556    7.4489 C   0  0  0  0  0  0  0  0  0  0  0  0
    2.2993  -25.9514   14.5444 C   0  0  1  0  0  0  0  0  0  0  0  0
    2.7383  -25.2783   13.1470 C   0  0  0  0  0  0  0  0  0  0  0  0
    3.6841  -26.2562   12.3278 C   0  0  2  0  0  0  0  0  0  0  0  0
    4.1528  -28.9089    6.3666 F   0  0  0  0  0  0  0  0  0  0  0  0
    5.9538  -30.3309   10.9610 N   0  0  0  0  0  0  0  0  0  0  0  0
    1.5137  -28.0783    6.2131 N   0  0  0  0  0  0  0  0  0  0  0  0
    1.4244  -24.9615   15.2487 N   0  0  0  0  0  0  0  0  0  0  0  0
    4.0762  -25.6648   11.0520 N   0  0  0  0  0  0  0  0  0  0  0  0
    3.8213  -28.3531   11.2850 O   0  0  0  0  0  0  0  0  0  0  0  0
    1.7264  -29.5443   13.0906 O   0  0  0  0  0  0  0  0  0  0  0  0
    1.0847  -27.8873   15.3863 O   0  0  0  0  0  0  0  0  0  0  0  0
    6.0525  -30.1270    8.1062 O   0  0  0  0  0  0  0  0  0  0  0  0
    2.3786  -29.4711    9.7151 O   0  0  0  0  0  0  0  0  0  0  0  0
  1  5  1  0  0  0  0
  1 18  1  6  0  0  0
  2 18  1  1  0  0  0
  2  3  1  0  0  0  0
  2 12  1  0  0  0  0
  3 19  1  6  0  0  0
  3  4  1  0  0  0  0
  4 20  1  1  0  0  0
  4 10  1  0  0  0  0
  5  6  1  0  0  0  0
  5 14  1  1  0  0  0
  6 21  1  6  0  0  0
  7 13  1  6  0  0  0
  7  6  1  0  0  0  0
  8  9  1  6  0  0  0
  8  7  1  0  0  0  0
 10 16  1  6  0  0  0
 11 10  1  0  0  0  0
 12 17  1  6  0  0  0
 12 11  1  0  0  0  0
 15  9  1  0  0  0  0
 22  8  1  0  0  0  0
 22  1  1  0  0  0  0
M  END
>  <CHROM.1>
-177.34588171,65.26140977,-62.96905256,3.15322236,-28.23943438,10.83779050
-1.20852906,-0.73710720,1.42963550

>  <Name>
lig.pdb

>  <RI>
0

>  <Rbt.Current_Directory>
/home/itssahil/PROJECTS/Mol_Feturizer/New_Systems/rnas/5bxk

>  <Rbt.Executable>
rbdock ($Id: //depot/dev/client3/rdock/2013.1/src/exe/rbdock.cxx#4 $)

>  <Rbt.Library>
libRbt.so (2013.1, Build901 2013/11/27)

>  <Rbt.Parameter_File>
/export/apps/rDock/src/rDock_2013.1_src/data/scripts/dock_solv.prm

>  <Rbt.Receptor>
prm/blind_docking_80.prm

>  <SCORE>
-5.95613

>  <SCORE.INTER>
-2.20931

>  <SCORE.INTER.CONST>
1

>  <SCORE.INTER.POLAR>
0

>  <SCORE.INTER.ROT>
3

>  <SCORE.INTER.SOLV>
11.2618

>  <SCORE.INTER.VDW>
-10.8268

>  <SCORE.INTER.norm>
-0.100423

>  <SCORE.INTRA>
-3.74683

>  <SCORE.INTRA.DIHEDRAL>
-6.84465

>  <SCORE.INTRA.DIHEDRAL.0>
7.18044

>  <SCORE.INTRA.POLAR>
0

>  <SCORE.INTRA.POLAR.0>
0

>  <SCORE.INTRA.REPUL>
0

>  <SCORE.INTRA.REPUL.0>
0

>  <SCORE.INTRA.SOLV>
-0.822479

>  <SCORE.INTRA.SOLV.lig_0>
-72.0615

>  <SCORE.INTRA.VDW>
0.0867402

>  <SCORE.INTRA.VDW.0>
-1.54792

>  <SCORE.INTRA.norm>
-0.17031

>  <SCORE.RESTR>
0

>  <SCORE.RESTR.CAVITY>
0

>  <SCORE.RESTR.norm>
0

>  <SCORE.SYSTEM>
0

>  <SCORE.SYSTEM.CONST>
0

>  <SCORE.SYSTEM.DIHEDRAL>
0

>  <SCORE.SYSTEM.SOLV>
0

>  <SCORE.SYSTEM.norm>
0

>  <SCORE.heavy>
22

>  <SCORE.norm>
-0.270733

>  <RMSD>
29.409

$$$$
lig.pdb
 OpenBabel11021811523D
libRbt.so/2013.1/901 2013/11/27
 22 23  0  0  0  0  0  0  0  0999 V2000
    3.7661  -29.5174   10.6077 C   0  0  1  0  0  0  0  0  0  0  0  0
    2.9872  -27.6625   12.0913 C   0  0  1  0  0  0  0  0  0  0  0  0
    2.5971  -28.5741   13.3974 C   0  0  1  0  0  0  0  0  0  0  0  0
    1.5749  -27.7160   14.2996 C   0  0  2  0  0  0  0  0  0  0  0  0
    4.9938  -30.0921    9.7670 C   0  0  1  0  0  0  0  0  0  0  0  0
    5.2050  -29.2498    8.4490 C   0  0  2  0  0  0  0  0  0  0  0  0
    3.8801  -29.3783    7.5488 C   0  0  1  0  0  0  0  0  0  0  0  0
    2.6111  -28.7418    8.3294 C   0  0  1  0  0  0  0  0  0  0  0  0
    1.2826  -28.8122    7.5264 C   0  0  0  0  0  0  0  0  0  0  0  0
    2.3536  -26.4015   14.7973 C   0  0  1  0  0  0  0  0  0  0  0  0
    2.7332  -25.5402   13.4887 C   0  0  0  0  0  0  0  0  0  0  0  0
    3.7019  -26.3646   12.5379 C   0  0  2  0  0  0  0  0  0  0  0  0
    4.0042  -28.6370    6.2891 F   0  0  0  0  0  0  0  0  0  0  0  0
    6.2035  -30.0412   10.7124 N   0  0  0  0  0  0  0  0  0  0  0  0
    1.2988  -28.0962    6.3036 N   0  0  0  0  0  0  0  0  0  0  0  0
    1.4526  -25.5477   15.6344 N   0  0  0  0  0  0  0  0  0  0  0  0
    4.0408  -25.6016   11.3404 N   0  0  0  0  0  0  0  0  0  0  0  0
    3.9059  -28.3067   11.2379 O   0  0  0  0  0  0  0  0  0  0  0  0
    1.9032  -29.8070   12.9130 O   0  0  0  0  0  0  0  0  0  0  0  0
    1.2412  -28.4801   15.4087 O   0  0  0  0  0  0  0  0  0  0  0  0
    6.1147  -29.7193    7.8682 O   0  0  0  0  0  0  0  0  0  0  0  0
    2.4936  -29.5060    9.7007 O   0  0  0  0  0  0  0  0  0  0  0  0
  1  5  1  0  0  0  0
  1 18  1  6  0  0  0
  2 18  1  6  0  0  0
  2  3  1  0  0  0  0
  2 12  1  0  0  0  0
  3 19  1  6  0  0  0
  3  4  1  0  0  0  0
  4 20  1  1  0  0  0
  4 10  1  0  0  0  0
  5  6  1  0  0  0  0
  5 14  1  1  0  0  0
  6 21  1  6  0  0  0
  7 13  1  6  0  0  0
  7  6  1  0  0  0  0
  8  9  1  6  0  0  0
  8  7  1  0  0  0  0
 10 16  1  1  0  0  0
 11 10  1  0  0  0  0
 12 17  1  6  0  0  0
 12 11  1  0  0  0  0
 15  9  1  0  0  0  0
 22  8  1  0  0  0  0
 22  1  1  0  0  0  0
M  END
>  <CHROM.1>
-175.68361652,58.14194733,-61.89116408,3.20276335,-28.29441998,10.85436374
-1.29204281,-0.47756452,1.40007207

>  <Name>
lig.pdb

>  <RI>
0

>  <Rbt.Current_Directory>
/home/itssahil/PROJECTS/Mol_Feturizer/New_Systems/rnas/5bxk

>  <Rbt.Executable>
rbdock ($Id: //depot/dev/client3/rdock/2013.1/src/exe/rbdock.cxx#4 $)

>  <Rbt.Library>
libRbt.so (2013.1, Build901 2013/11/27)

>  <Rbt.Parameter_File>
/export/apps/rDock/src/rDock_2013.1_src/data/scripts/dock_solv.prm

>  <Rbt.Receptor>
prm/blind_docking_100.prm

>  <SCORE>
-5.91552

>  <SCORE.INTER>
-2.16505

>  <SCORE.INTER.CONST>
1

>  <SCORE.INTER.POLAR>
0

>  <SCORE.INTER.ROT>
3

>  <SCORE.INTER.SOLV>
11.9019

>  <SCORE.INTER.VDW>
-11.0107

>  <SCORE.INTER.norm>
-0.0984116

>  <SCORE.INTRA>
-3.75046

>  <SCORE.INTRA.DIHEDRAL>
-6.92733

>  <SCORE.INTRA.DIHEDRAL.0>
7.18044

>  <SCORE.INTRA.POLAR>
0

>  <SCORE.INTRA.POLAR.0>
0

>  <SCORE.INTRA.REPUL>
0

>  <SCORE.INTRA.REPUL.0>
0

>  <SCORE.INTRA.SOLV>
-0.910148

>  <SCORE.INTRA.SOLV.lig_0>
-72.0615

>  <SCORE.INTRA.VDW>
0.168275

>  <SCORE.INTRA.VDW.0>
-1.54792

>  <SCORE.INTRA.norm>
-0.170476

>  <SCORE.RESTR>
0

>  <SCORE.RESTR.CAVITY>
0

>  <SCORE.RESTR.norm>
0

>  <SCORE.SYSTEM>
0

>  <SCORE.SYSTEM.CONST>
0

>  <SCORE.SYSTEM.DIHEDRAL>
0

>  <SCORE.SYSTEM.SOLV>
0

>  <SCORE.SYSTEM.norm>
0

>  <SCORE.heavy>
22

>  <SCORE.norm>
-0.268887

>  <RMSD>
29.426

$$$$
lig.pdb
 OpenBabel11021811523D
libRbt.so/2013.1/901 2013/11/27
 22 23  0  0  0  0  0  0  0  0999 V2000
    3.6219  -29.6331   10.6981 C   0  0  1  0  0  0  0  0  0  0  0  0
    2.9680  -27.6437   12.0630 C   0  0  1  0  0  0  0  0  0  0  0  0
    2.4510  -28.4124   13.4161 C   0  0  1  0  0  0  0  0  0  0  0  0
    1.4693  -27.4047   14.2009 C   0  0  2  0  0  0  0  0  0  0  0  0
    4.8148  -30.3547    9.9233 C   0  0  1  0  0  0  0  0  0  0  0  0
    5.1647  -29.5752    8.5961 C   0  0  2  0  0  0  0  0  0  0  0  0
    3.8700  -29.5904    7.6443 C   0  0  1  0  0  0  0  0  0  0  0  0
    2.6448  -28.8048    8.3560 C   0  0  1  0  0  0  0  0  0  0  0  0
    1.3489  -28.7592    7.4998 C   0  0  0  0  0  0  0  0  0  0  0  0
    2.3351  -26.1213   14.6313 C   0  0  1  0  0  0  0  0  0  0  0  0
    2.8376  -25.4019   13.2791 C   0  0  0  0  0  0  0  0  0  0  0  0
    3.7708  -26.3758   12.4408 C   0  0  2  0  0  0  0  0  0  0  0  0
    4.1205  -28.9007    6.3742 F   0  0  0  0  0  0  0  0  0  0  0  0
    5.9851  -30.4035   10.9171 N   0  0  0  0  0  0  0  0  0  0  0  0
    1.4717  -28.0317    6.2899 N   0  0  0  0  0  0  0  0  0  0  0  0
    1.4764  -25.1328   15.3572 N   0  0  0  0  0  0  0  0  0  0  0  0
    4.2201  -25.7418   11.2050 N   0  0  0  0  0  0  0  0  0  0  0  0
    3.8626  -28.4266   11.3055 O   0  0  0  0  0  0  0  0  0  0  0  0
    1.6758  -29.6205   12.9967 O   0  0  0  0  0  0  0  0  0  0  0  0
    1.0285  -28.0473   15.3491 O   0  0  0  0  0  0  0  0  0  0  0  0
    6.0424  -30.1521    8.0650 O   0  0  0  0  0  0  0  0  0  0  0  0
    2.3942  -29.5149    9.7386 O   0  0  0  0  0  0  0  0  0  0  0  0
  1  5  1  0  0  0  0
  1 18  1  6  0  0  0
  2 18  1  1  0  0  0
  2  3  1  0  0  0  0
  2 12  1  0  0  0  0
  3 19  1  6  0  0  0
  3  4  1  0  0  0  0
  4 20  1  1  0  0  0
  4 10  1  0  0  0  0
  5  6  1  0  0  0  0
  5 14  1  1  0  0  0
  6 21  1  6  0  0  0
  7 13  1  6  0  0  0
  7  6  1  0  0  0  0
  8  9  1  6  0  0  0
  8  7  1  0  0  0  0
 10 16  1  6  0  0  0
 11 10  1  0  0  0  0
 12 17  1  6  0  0  0
 12 11  1  0  0  0  0
 15  9  1  0  0  0  0
 22  8  1  0  0  0  0
 22  1  1  0  0  0  0
M  END
>  <CHROM.1>
-178.27546818,62.36681287,-64.54855352,3.16775517,-28.30899728,10.86171952
-1.23585791,-0.66266045,1.40680448

>  <Name>
lig.pdb

>  <RI>
0

>  <Rbt.Current_Directory>
/home/itssahil/PROJECTS/Mol_Feturizer/New_Systems/rnas/5bxk

>  <Rbt.Executable>
rbdock ($Id: //depot/dev/client3/rdock/2013.1/src/exe/rbdock.cxx#4 $)

>  <Rbt.Library>
libRbt.so (2013.1, Build901 2013/11/27)

>  <Rbt.Parameter_File>
/export/apps/rDock/src/rDock_2013.1_src/data/scripts/dock_solv.prm

>  <Rbt.Receptor>
prm/blind_docking_60.prm

>  <SCORE>
-5.97757

>  <SCORE.INTER>
-2.16811

>  <SCORE.INTER.CONST>
1

>  <SCORE.INTER.POLAR>
0

>  <SCORE.INTER.ROT>
3

>  <SCORE.INTER.SOLV>
11.2271

>  <SCORE.INTER.VDW>
-10.7878

>  <SCORE.INTER.norm>
-0.0985503

>  <SCORE.INTRA>
-3.80946

>  <SCORE.INTRA.DIHEDRAL>
-6.92974

>  <SCORE.INTRA.DIHEDRAL.0>
7.18044

>  <SCORE.INTRA.POLAR>
0

>  <SCORE.INTRA.POLAR.0>
0

>  <SCORE.INTRA.REPUL>
0

>  <SCORE.INTRA.REPUL.0>
0

>  <SCORE.INTRA.SOLV>
-0.889165

>  <SCORE.INTRA.SOLV.lig_0>
-72.0615

>  <SCORE.INTRA.VDW>
0.0999876

>  <SCORE.INTRA.VDW.0>
-1.54792

>  <SCORE.INTRA.norm>
-0.173157

>  <SCORE.RESTR>
0

>  <SCORE.RESTR.CAVITY>
0

>  <SCORE.RESTR.norm>
0

>  <SCORE.SYSTEM>
0

>  <SCORE.SYSTEM.CONST>
0

>  <SCORE.SYSTEM.DIHEDRAL>
0

>  <SCORE.SYSTEM.SOLV>
0

>  <SCORE.SYSTEM.norm>
0

>  <SCORE.heavy>
22

>  <SCORE.norm>
-0.271708

>  <RMSD>
29.435

$$$$
lig.pdb
 OpenBabel11021811523D
libRbt.so/2013.1/901 2013/11/27
 22 23  0  0  0  0  0  0  0  0999 V2000
    3.5365  -29.5928   10.6290 C   0  0  1  0  0  0  0  0  0  0  0  0
    2.8911  -27.6090   12.0061 C   0  0  1  0  0  0  0  0  0  0  0  0
    2.4917  -28.3592   13.4086 C   0  0  1  0  0  0  0  0  0  0  0  0
    1.5159  -27.3716   14.2257 C   0  0  2  0  0  0  0  0  0  0  0  0
    4.7382  -30.3322    9.8851 C   0  0  1  0  0  0  0  0  0  0  0  0
    5.1082  -29.5798    8.5478 C   0  0  2  0  0  0  0  0  0  0  0  0
    3.8267  -29.6111    7.5787 C   0  0  1  0  0  0  0  0  0  0  0  0
    2.5938  -28.8089    8.2577 C   0  0  1  0  0  0  0  0  0  0  0  0
    1.3099  -28.7775    7.3830 C   0  0  0  0  0  0  0  0  0  0  0  0
    2.3487  -26.0405   14.5673 C   0  0  1  0  0  0  0  0  0  0  0  0
    2.7359  -25.3403   13.1680 C   0  0  0  0  0  0  0  0  0  0  0  0
    3.6585  -26.2977   12.2997 C   0  0  2  0  0  0  0  0  0  0  0  0
    4.0963  -28.9472    6.2988 F   0  0  0  0  0  0  0  0  0  0  0  0
    5.8946  -30.3638   10.8958 N   0  0  0  0  0  0  0  0  0  0  0  0
    1.4520  -28.0772    6.1592 N   0  0  0  0  0  0  0  0  0  0  0  0
    1.4928  -25.0687   15.3186 N   0  0  0  0  0  0  0  0  0  0  0  0
    4.0034  -25.6815   11.0220 N   0  0  0  0  0  0  0  0  0  0  0  0
    3.7718  -28.3751   11.2157 O   0  0  0  0  0  0  0  0  0  0  0  0
    1.7466  -29.6109   13.0702 O   0  0  0  0  0  0  0  0  0  0  0  0
    1.1746  -27.9986   15.4156 O   0  0  0  0  0  0  0  0  0  0  0  0
    5.9918  -30.1690    8.0404 O   0  0  0  0  0  0  0  0  0  0  0  0
    2.3225  -29.4910    9.6505 O   0  0  0  0  0  0  0  0  0  0  0  0
  1  5  1  0  0  0  0
  1 18  1  6  0  0  0
  2 18  1  6  0  0  0
  2  3  1  0  0  0  0
  2 12  1  0  0  0  0
  3 19  1  6  0  0  0
  3  4  1  0  0  0  0
  4 20  1  1  0  0  0
  4 10  1  0  0  0  0
  5  6  1  0  0  0  0
  5 14  1  1  0  0  0
  6 21  1  6  0  0  0
  7 13  1  6  0  0  0
  7  6  1  0  0  0  0
  8  9  1  6  0  0  0
  8  7  1  0  0  0  0
 10 16  1  1  0  0  0
 11 10  1  0  0  0  0
 12 17  1  6  0  0  0
 12 11  1  0  0  0  0
 15  9  1  0  0  0  0
 22  8  1  0  0  0  0
 22  1  1  0  0  0  0
M  END
>  <CHROM.1>
-174.50438892,64.14550060,-64.40034691,3.12963878,-28.28559884,10.80360274
-1.22729262,-0.75960538,1.43525566

>  <Name>
lig.pdb

>  <RI>
0

>  <Rbt.Current_Directory>
/home/itssahil/PROJECTS/Mol_Feturizer/New_Systems/rnas/5bxk

>  <Rbt.Executable>
rbdock ($Id: //depot/dev/client3/rdock/2013.1/src/exe/rbdock.cxx#4 $)

>  <Rbt.Library>
libRbt.so (2013.1, Build901 2013/11/27)

>  <Rbt.Parameter_File>
/export/apps/rDock/src/rDock_2013.1_src/data/scripts/dock_solv.prm

>  <Rbt.Receptor>
prm/blind_docking_80.prm

>  <SCORE>
-5.8661

>  <SCORE.INTER>
-2.15451

>  <SCORE.INTER.CONST>
1

>  <SCORE.INTER.POLAR>
0

>  <SCORE.INTER.ROT>
3

>  <SCORE.INTER.SOLV>
11.5149

>  <SCORE.INTER.VDW>
-10.8746

>  <SCORE.INTER.norm>
-0.0979322

>  <SCORE.INTRA>
-3.71159

>  <SCORE.INTRA.DIHEDRAL>
-6.74923

>  <SCORE.INTRA.DIHEDRAL.0>
7.18044

>  <SCORE.INTRA.POLAR>
0

>  <SCORE.INTRA.POLAR.0>
0

>  <SCORE.INTRA.REPUL>
0

>  <SCORE.INTRA.REPUL.0>
0

>  <SCORE.INTRA.SOLV>
-0.856415

>  <SCORE.INTRA.SOLV.lig_0>
-72.0615

>  <SCORE.INTRA.VDW>
0.0912326

>  <SCORE.INTRA.VDW.0>
-1.54792

>  <SCORE.INTRA.norm>
-0.168709

>  <SCORE.RESTR>
0

>  <SCORE.RESTR.CAVITY>
0

>  <SCORE.RESTR.norm>
0

>  <SCORE.SYSTEM>
0

>  <SCORE.SYSTEM.CONST>
0

>  <SCORE.SYSTEM.DIHEDRAL>
0

>  <SCORE.SYSTEM.SOLV>
0

>  <SCORE.SYSTEM.norm>
0

>  <SCORE.heavy>
22

>  <SCORE.norm>
-0.266641

>  <RMSD>
29.468

$$$$
lig.pdb
 OpenBabel11021811523D
libRbt.so/2013.1/901 2013/11/27
 22 23  0  0  0  0  0  0  0  0999 V2000
    7.0095  -27.9865    9.8750 C   0  0  1  0  0  0  0  0  0  0  0  0
    5.7537  -30.1342   10.1176 C   0  0  1  0  0  0  0  0  0  0  0  0
    6.8234  -31.1407    9.3882 C   0  0  1  0  0  0  0  0  0  0  0  0
    6.0130  -32.4515    8.9190 C   0  0  2  0  0  0  0  0  0  0  0  0
    7.6960  -26.7768   10.6556 C   0  0  1  0  0  0  0  0  0  0  0  0
    6.6003  -25.8170   11.2635 C   0  0  2  0  0  0  0  0  0  0  0  0
    5.7371  -25.2047   10.0543 C   0  0  1  0  0  0  0  0  0  0  0  0
    4.9586  -26.3887    9.2688 C   0  0  1  0  0  0  0  0  0  0  0  0
    4.0861  -25.8865    8.0852 C   0  0  0  0  0  0  0  0  0  0  0  0
    5.4431  -33.1678   10.2396 C   0  0  1  0  0  0  0  0  0  0  0  0
    4.4097  -32.1454   10.9361 C   0  0  0  0  0  0  0  0  0  0  0  0
    5.1515  -30.8107   11.3724 C   0  0  2  0  0  0  0  0  0  0  0  0
    4.7048  -24.2807   10.5361 F   0  0  0  0  0  0  0  0  0  0  0  0
    8.5860  -27.4261   11.7262 N   0  0  0  0  0  0  0  0  0  0  0  0
    3.3710  -26.9069    7.4104 N   0  0  0  0  0  0  0  0  0  0  0  0
    4.6639  -34.3925    9.8732 N   0  0  0  0  0  0  0  0  0  0  0  0
    4.2229  -29.8690   11.9904 N   0  0  0  0  0  0  0  0  0  0  0  0
    6.3614  -28.9563   10.5976 O   0  0  0  0  0  0  0  0  0  0  0  0
    7.3669  -30.4452    8.1810 O   0  0  0  0  0  0  0  0  0  0  0  0
    6.9120  -33.3098    8.3021 O   0  0  0  0  0  0  0  0  0  0  0  0
    7.1604  -24.9442   11.8201 O   0  0  0  0  0  0  0  0  0  0  0  0
    6.0565  -27.4062    8.7810 O   0  0  0  0  0  0  0  0  0  0  0  0
  1  5  1  0  0  0  0
  1 18  1  1  0  0  0
  2 18  1  1  0  0  0
  2  3  1  0  0  0  0
  2 12  1  0  0  0  0
  3 19  1  6  0  0  0
  3  4  1  0  0  0  0
  4 20  1  1  0  0  0
  4 10  1  0  0  0  0
  5  6  1  0  0  0  0
  5 14  1  1  0  0  0
  6 21  1  6  0  0  0
  7 13  1  1  0  0  0
  7  6  1  0  0  0  0
  8  9  1  6  0  0  0
  8  7  1  0  0  0  0
 10 16  1  6  0  0  0
 11 10  1  0  0  0  0
 12 17  1  6  0  0  0
 12 11  1  0  0  0  0
 15  9  1  0  0  0  0
 22  8  1  0  0  0  0
 22  1  1  0  0  0  0
M  END
>  <CHROM.1>
-176.44137756,61.80961239,-178.40739662,5.86971190,-28.82934399,9.96297038
-1.54764267,0.72106815,-3.07634858

>  <Name>
lig.pdb

>  <RI>
0

>  <Rbt.Current_Directory>
/home/itssahil/PROJECTS/Mol_Feturizer/New_Systems/rnas/5bxk

>  <Rbt.Executable>
rbdock ($Id: //depot/dev/client3/rdock/2013.1/src/exe/rbdock.cxx#4 $)

>  <Rbt.Library>
libRbt.so (2013.1, Build901 2013/11/27)

>  <Rbt.Parameter_File>
/export/apps/rDock/src/rDock_2013.1_src/data/scripts/dock_solv.prm

>  <Rbt.Receptor>
prm/blind_docking_100.prm

>  <SCORE>
-7.16687

>  <SCORE.INTER>
-2.87876

>  <SCORE.INTER.CONST>
1

>  <SCORE.INTER.POLAR>
0

>  <SCORE.INTER.ROT>
3

>  <SCORE.INTER.SOLV>
20.0342

>  <SCORE.INTER.VDW>
-14.1972

>  <SCORE.INTER.norm>
-0.130853

>  <SCORE.INTRA>
-4.28811

>  <SCORE.INTRA.DIHEDRAL>
-6.95939

>  <SCORE.INTRA.DIHEDRAL.0>
7.18044

>  <SCORE.INTRA.POLAR>
0

>  <SCORE.INTRA.POLAR.0>
0

>  <SCORE.INTRA.REPUL>
0

>  <SCORE.INTRA.REPUL.0>
0

>  <SCORE.INTRA.SOLV>
-1.79352

>  <SCORE.INTRA.SOLV.lig_0>
-72.0615

>  <SCORE.INTRA.VDW>
0.0883395

>  <SCORE.INTRA.VDW.0>
-1.54792

>  <SCORE.INTRA.norm>
-0.194914

>  <SCORE.RESTR>
0

>  <SCORE.RESTR.CAVITY>
0

>  <SCORE.RESTR.norm>
0

>  <SCORE.SYSTEM>
0

>  <SCORE.SYSTEM.CONST>
0

>  <SCORE.SYSTEM.DIHEDRAL>
0

>  <SCORE.SYSTEM.SOLV>
0

>  <SCORE.SYSTEM.norm>
0

>  <SCORE.heavy>
22

>  <SCORE.norm>
-0.325767

>  <RMSD>
29.472

$$$$
lig.pdb
 OpenBabel11021811523D
libRbt.so/2013.1/901 2013/11/27
 22 23  0  0  0  0  0  0  0  0999 V2000
    6.6211  -27.4880    9.5472 C   0  0  1  0  0  0  0  0  0  0  0  0
    5.8909  -29.8297   10.0286 C   0  0  1  0  0  0  0  0  0  0  0  0
    6.6084  -30.5822    8.7605 C   0  0  1  0  0  0  0  0  0  0  0  0
    5.8405  -31.9792    8.5283 C   0  0  2  0  0  0  0  0  0  0  0  0
    7.0253  -26.1000   10.2209 C   0  0  1  0  0  0  0  0  0  0  0  0
    5.8366  -25.5427   11.0971 C   0  0  2  0  0  0  0  0  0  0  0  0
    4.5772  -25.2817   10.1337 C   0  0  1  0  0  0  0  0  0  0  0  0
    4.0790  -26.6761    9.4762 C   0  0  1  0  0  0  0  0  0  0  0  0
    2.8529  -26.5212    8.5342 C   0  0  0  0  0  0  0  0  0  0  0  0
    6.0488  -32.8721    9.8479 C   0  0  1  0  0  0  0  0  0  0  0  0
    5.3456  -32.0954   11.0729 C   0  0  0  0  0  0  0  0  0  0  0  0
    6.0352  -30.6847   11.3104 C   0  0  2  0  0  0  0  0  0  0  0  0
    3.4309  -24.7402   10.8714 F   0  0  0  0  0  0  0  0  0  0  0  0
    8.2910  -26.3905   11.0415 N   0  0  0  0  0  0  0  0  0  0  0  0
    2.4477  -27.7210    7.8983 N   0  0  0  0  0  0  0  0  0  0  0  0
    5.3458  -34.1861    9.7044 N   0  0  0  0  0  0  0  0  0  0  0  0
    5.3968  -29.9636   12.4075 N   0  0  0  0  0  0  0  0  0  0  0  0
    6.5029  -28.5993   10.3431 O   0  0  0  0  0  0  0  0  0  0  0  0
    6.4328  -29.7221    7.5499 O   0  0  0  0  0  0  0  0  0  0  0  0
    6.4432  -32.6236    7.4574 O   0  0  0  0  0  0  0  0  0  0  0  0
    6.1863  -24.5199   11.5628 O   0  0  0  0  0  0  0  0  0  0  0  0
    5.3150  -27.2840    8.7138 O   0  0  0  0  0  0  0  0  0  0  0  0
  1  5  1  0  0  0  0
  1 18  1  1  0  0  0
  2 18  1  1  0  0  0
  2  3  1  0  0  0  0
  2 12  1  0  0  0  0
  3 19  1  6  0  0  0
  3  4  1  0  0  0  0
  4 20  1  6  0  0  0
  4 10  1  0  0  0  0
  5  6  1  0  0  0  0
  5 14  1  1  0  0  0
  6 21  1  6  0  0  0
  7 13  1  1  0  0  0
  7  6  1  0  0  0  0
  8  9  1  6  0  0  0
  8  7  1  0  0  0  0
 10 16  1  6  0  0  0
 11 10  1  0  0  0  0
 12 17  1  1  0  0  0
 12 11  1  0  0  0  0
 15  9  1  0  0  0  0
 22  8  1  0  0  0  0
 22  1  1  0  0  0  0
M  END
>  <CHROM.1>
165.02929136,61.26665216,176.94015571,5.54660565,-28.63223586,9.81532859
-1.74197368,0.71413020,-2.87278763

>  <Name>
lig.pdb

>  <RI>
0

>  <Rbt.Current_Directory>
/home/itssahil/PROJECTS/Mol_Feturizer/New_Systems/rnas/5bxk

>  <Rbt.Executable>
rbdock ($Id: //depot/dev/client3/rdock/2013.1/src/exe/rbdock.cxx#4 $)

>  <Rbt.Library>
libRbt.so (2013.1, Build901 2013/11/27)

>  <Rbt.Parameter_File>
/export/apps/rDock/src/rDock_2013.1_src/data/scripts/dock_solv.prm

>  <Rbt.Receptor>
prm/blind_docking_60.prm

>  <SCORE>
-5.75368

>  <SCORE.INTER>
-1.92285

>  <SCORE.INTER.CONST>
1

>  <SCORE.INTER.POLAR>
0

>  <SCORE.INTER.ROT>
3

>  <SCORE.INTER.SOLV>
15.8997

>  <SCORE.INTER.VDW>
-12.1818

>  <SCORE.INTER.norm>
-0.0874023

>  <SCORE.INTRA>
-3.83083

>  <SCORE.INTRA.DIHEDRAL>
-5.99264

>  <SCORE.INTRA.DIHEDRAL.0>
7.18044

>  <SCORE.INTRA.POLAR>
0

>  <SCORE.INTRA.POLAR.0>
0

>  <SCORE.INTRA.REPUL>
0

>  <SCORE.INTRA.REPUL.0>
0

>  <SCORE.INTRA.SOLV>
-1.69238

>  <SCORE.INTRA.SOLV.lig_0>
-72.0615

>  <SCORE.INTRA.VDW>
0.0116794

>  <SCORE.INTRA.VDW.0>
-1.54792

>  <SCORE.INTRA.norm>
-0.174129

>  <SCORE.RESTR>
0

>  <SCORE.RESTR.CAVITY>
0

>  <SCORE.RESTR.norm>
0

>  <SCORE.SYSTEM>
0

>  <SCORE.SYSTEM.CONST>
0

>  <SCORE.SYSTEM.DIHEDRAL>
0

>  <SCORE.SYSTEM.SOLV>
0

>  <SCORE.SYSTEM.norm>
0

>  <SCORE.heavy>
22

>  <SCORE.norm>
-0.261531

>  <RMSD>
29.476

$$$$
lig.pdb
 OpenBabel11021811523D
libRbt.so/2013.1/901 2013/11/27
 22 23  0  0  0  0  0  0  0  0999 V2000
    3.5103  -29.7158   10.6190 C   0  0  1  0  0  0  0  0  0  0  0  0
    2.9544  -27.7067   11.9985 C   0  0  1  0  0  0  0  0  0  0  0  0
    2.4969  -28.4411   13.3915 C   0  0  1  0  0  0  0  0  0  0  0  0
    1.5650  -27.4063   14.2015 C   0  0  2  0  0  0  0  0  0  0  0  0
    4.6724  -30.4985    9.8569 C   0  0  1  0  0  0  0  0  0  0  0  0
    5.0625  -29.7494    8.5235 C   0  0  2  0  0  0  0  0  0  0  0  0
    3.7724  -29.7158    7.5660 C   0  0  1  0  0  0  0  0  0  0  0  0
    2.5812  -28.8683    8.2642 C   0  0  1  0  0  0  0  0  0  0  0  0
    1.2921  -28.7729    7.4018 C   0  0  0  0  0  0  0  0  0  0  0  0
    2.4637  -26.1238   14.5613 C   0  0  1  0  0  0  0  0  0  0  0  0
    2.9064  -25.4385   13.1710 C   0  0  0  0  0  0  0  0  0  0  0  0
    3.7875  -26.4401   12.3092 C   0  0  2  0  0  0  0  0  0  0  0  0
    4.0589  -29.0513    6.2901 F   0  0  0  0  0  0  0  0  0  0  0  0
    5.8352  -30.5900   10.8564 N   0  0  0  0  0  0  0  0  0  0  0  0
    1.4577  -28.0823    6.1755 N   0  0  0  0  0  0  0  0  0  0  0  0
    1.6516  -25.1109   15.3069 N   0  0  0  0  0  0  0  0  0  0  0  0
    4.1818  -25.8371   11.0395 N   0  0  0  0  0  0  0  0  0  0  0  0
    3.8030  -28.5152   11.2152 O   0  0  0  0  0  0  0  0  0  0  0  0
    1.6900  -29.6491   13.0366 O   0  0  0  0  0  0  0  0  0  0  0  0
    1.1749  -28.0197   15.3834 O   0  0  0  0  0  0  0  0  0  0  0  0
    5.9154  -30.3709    8.0022 O   0  0  0  0  0  0  0  0  0  0  0  0
    2.2931  -29.5520    9.6528 O   0  0  0  0  0  0  0  0  0  0  0  0
  1  5  1  0  0  0  0
  1 18  1  6  0  0  0
  2 18  1  6  0  0  0
  2  3  1  0  0  0  0
  2 12  1  0  0  0  0
  3 19  1  6  0  0  0
  3  4  1  0  0  0  0
  4 20  1  1  0  0  0
  4 10  1  0  0  0  0
  5  6  1  0  0  0  0
  5 14  1  1  0  0  0
  6 21  1  6  0  0  0
  7 13  1  6  0  0  0
  7  6  1  0  0  0  0
  8  9  1  6  0  0  0
  8  7  1  0  0  0  0
 10 16  1  1  0  0  0
 11 10  1  0  0  0  0
 12 17  1  6  0  0  0
 12 11  1  0  0  0  0
 15  9  1  0  0  0  0
 22  8  1  0  0  0  0
 22  1  1  0  0  0  0
M  END
>  <CHROM.1>
-175.92814179,64.12883264,-63.60956738,3.14671881,-28.38307172,10.79331102
-1.24227738,-0.78075228,1.42192854

>  <Name>
lig.pdb

>  <RI>
0

>  <Rbt.Current_Directory>
/home/itssahil/PROJECTS/Mol_Feturizer/New_Systems/rnas/5bxk

>  <Rbt.Executable>
rbdock ($Id: //depot/dev/client3/rdock/2013.1/src/exe/rbdock.cxx#4 $)

>  <Rbt.Library>
libRbt.so (2013.1, Build901 2013/11/27)

>  <Rbt.Parameter_File>
/export/apps/rDock/src/rDock_2013.1_src/data/scripts/dock_solv.prm

>  <Rbt.Receptor>
prm/blind_docking_80.prm

>  <SCORE>
-5.90769

>  <SCORE.INTER>
-2.16042

>  <SCORE.INTER.CONST>
1

>  <SCORE.INTER.POLAR>
0

>  <SCORE.INTER.ROT>
3

>  <SCORE.INTER.SOLV>
11.2663

>  <SCORE.INTER.VDW>
-10.7957

>  <SCORE.INTER.norm>
-0.098201

>  <SCORE.INTRA>
-3.74726

>  <SCORE.INTRA.DIHEDRAL>
-6.83651

>  <SCORE.INTRA.DIHEDRAL.0>
7.18044

>  <SCORE.INTRA.POLAR>
0

>  <SCORE.INTRA.POLAR.0>
0

>  <SCORE.INTRA.REPUL>
0

>  <SCORE.INTRA.REPUL.0>
0

>  <SCORE.INTRA.SOLV>
-0.847192

>  <SCORE.INTRA.SOLV.lig_0>
-72.0615

>  <SCORE.INTRA.VDW>
0.0945868

>  <SCORE.INTRA.VDW.0>
-1.54792

>  <SCORE.INTRA.norm>
-0.17033

>  <SCORE.RESTR>
0

>  <SCORE.RESTR.CAVITY>
0

>  <SCORE.RESTR.norm>
0

>  <SCORE.SYSTEM>
0

>  <SCORE.SYSTEM.CONST>
0

>  <SCORE.SYSTEM.DIHEDRAL>
0

>  <SCORE.SYSTEM.SOLV>
0

>  <SCORE.SYSTEM.norm>
0

>  <SCORE.heavy>
22

>  <SCORE.norm>
-0.268531

>  <RMSD>
29.523

$$$$
lig.pdb
 OpenBabel11021811523D
libRbt.so/2013.1/901 2013/11/27
 22 23  0  0  0  0  0  0  0  0999 V2000
    7.0325  -28.1387    9.8465 C   0  0  1  0  0  0  0  0  0  0  0  0
    5.7496  -30.2704   10.0888 C   0  0  1  0  0  0  0  0  0  0  0  0
    6.8309  -31.3073    9.4219 C   0  0  1  0  0  0  0  0  0  0  0  0
    6.0195  -32.6165    8.9500 C   0  0  2  0  0  0  0  0  0  0  0  0
    7.6809  -26.9054   10.6227 C   0  0  1  0  0  0  0  0  0  0  0  0
    6.5570  -25.9337   11.1556 C   0  0  2  0  0  0  0  0  0  0  0  0
    5.7457  -25.3582    9.8935 C   0  0  1  0  0  0  0  0  0  0  0  0
    5.0056  -26.5664    9.1077 C   0  0  1  0  0  0  0  0  0  0  0  0
    4.1843  -26.1002    7.8738 C   0  0  0  0  0  0  0  0  0  0  0  0
    5.3897  -33.2960   10.2630 C   0  0  1  0  0  0  0  0  0  0  0  0
    4.3461  -32.2444   10.8981 C   0  0  0  0  0  0  0  0  0  0  0  0
    5.0907  -30.9111   11.3338 C   0  0  2  0  0  0  0  0  0  0  0  0
    4.6908  -24.4254   10.3042 F   0  0  0  0  0  0  0  0  0  0  0  0
    8.5251  -27.5216   11.7485 N   0  0  0  0  0  0  0  0  0  0  0  0
    3.5305  -27.1462    7.1762 N   0  0  0  0  0  0  0  0  0  0  0  0
    4.6068  -34.5173    9.8932 N   0  0  0  0  0  0  0  0  0  0  0  0
    4.1535  -29.9432   11.8962 N   0  0  0  0  0  0  0  0  0  0  0  0
    6.3562  -29.0909   10.5665 O   0  0  0  0  0  0  0  0  0  0  0  0
    7.4296  -30.6458    8.2218 O   0  0  0  0  0  0  0  0  0  0  0  0
    6.9282  -33.5005    8.3859 O   0  0  0  0  0  0  0  0  0  0  0  0
    7.0898  -25.0438   11.7118 O   0  0  0  0  0  0  0  0  0  0  0  0
    6.1266  -27.5924    8.6964 O   0  0  0  0  0  0  0  0  0  0  0  0
  1  5  1  0  0  0  0
  1 18  1  1  0  0  0
  2 18  1  1  0  0  0
  2  3  1  0  0  0  0
  2 12  1  0  0  0  0
  3 19  1  6  0  0  0
  3  4  1  0  0  0  0
  4 20  1  1  0  0  0
  4 10  1  0  0  0  0
  5  6  1  0  0  0  0
  5 14  1  1  0  0  0
  6 21  1  6  0  0  0
  7 13  1  1  0  0  0
  7  6  1  0  0  0  0
  8  9  1  6  0  0  0
  8  7  1  0  0  0  0
 10 16  1  6  0  0  0
 11 10  1  0  0  0  0
 12 17  1  6  0  0  0
 12 11  1  0  0  0  0
 15  9  1  0  0  0  0
 22  8  1  0  0  0  0
 22  1  1  0  0  0  0
M  END
>  <CHROM.1>
-177.86956892,62.60186527,-179.97874836,5.86942153,-28.97665276,9.90030483
-1.53856162,0.77667264,-3.10553356

>  <Name>
lig.pdb

>  <RI>
0

>  <Rbt.Current_Directory>
/home/itssahil/PROJECTS/Mol_Feturizer/New_Systems/rnas/5bxk

>  <Rbt.Executable>
rbdock ($Id: //depot/dev/client3/rdock/2013.1/src/exe/rbdock.cxx#4 $)

>  <Rbt.Library>
libRbt.so (2013.1, Build901 2013/11/27)

>  <Rbt.Parameter_File>
/export/apps/rDock/src/rDock_2013.1_src/data/scripts/dock_solv.prm

>  <Rbt.Receptor>
prm/blind_docking_40.prm

>  <SCORE>
-7.03078

>  <SCORE.INTER>
-2.73118

>  <SCORE.INTER.CONST>
1

>  <SCORE.INTER.POLAR>
0

>  <SCORE.INTER.ROT>
3

>  <SCORE.INTER.SOLV>
19.8054

>  <SCORE.INTER.VDW>
-14.0226

>  <SCORE.INTER.norm>
-0.124144

>  <SCORE.INTRA>
-4.29961

>  <SCORE.INTRA.DIHEDRAL>
-6.99012

>  <SCORE.INTRA.DIHEDRAL.0>
7.18044

>  <SCORE.INTRA.POLAR>
0

>  <SCORE.INTRA.POLAR.0>
0

>  <SCORE.INTRA.REPUL>
0

>  <SCORE.INTRA.REPUL.0>
0

>  <SCORE.INTRA.SOLV>
-1.76415

>  <SCORE.INTRA.SOLV.lig_0>
-72.0615

>  <SCORE.INTRA.VDW>
0.0775274

>  <SCORE.INTRA.VDW.0>
-1.54792

>  <SCORE.INTRA.norm>
-0.195437

>  <SCORE.RESTR>
0

>  <SCORE.RESTR.CAVITY>
0

>  <SCORE.RESTR.norm>
0

>  <SCORE.SYSTEM>
0

>  <SCORE.SYSTEM.CONST>
0

>  <SCORE.SYSTEM.DIHEDRAL>
0

>  <SCORE.SYSTEM.SOLV>
0

>  <SCORE.SYSTEM.norm>
0

>  <SCORE.heavy>
22

>  <SCORE.norm>
-0.319581

>  <RMSD>
29.602

$$$$
lig.pdb
 OpenBabel11021811523D
libRbt.so/2013.1/901 2013/11/27
 22 23  0  0  0  0  0  0  0  0999 V2000
    7.2116  -28.4225    9.9859 C   0  0  1  0  0  0  0  0  0  0  0  0
    5.7997  -30.4706   10.2318 C   0  0  1  0  0  0  0  0  0  0  0  0
    6.9111  -31.5812    9.7620 C   0  0  1  0  0  0  0  0  0  0  0  0
    6.1119  -32.9031    9.3047 C   0  0  2  0  0  0  0  0  0  0  0  0
    7.8231  -27.1563   10.7388 C   0  0  1  0  0  0  0  0  0  0  0  0
    6.6979  -26.0884   11.0300 C   0  0  2  0  0  0  0  0  0  0  0  0
    6.0967  -25.5912    9.6251 C   0  0  1  0  0  0  0  0  0  0  0  0
    5.3972  -26.8288    8.8481 C   0  0  1  0  0  0  0  0  0  0  0  0
    4.7758  -26.4373    7.4787 C   0  0  0  0  0  0  0  0  0  0  0  0
    5.3276  -33.4644   10.5899 C   0  0  1  0  0  0  0  0  0  0  0  0
    4.2575  -32.3425   11.0311 C   0  0  0  0  0  0  0  0  0  0  0  0
    4.9947  -30.9978   11.4437 C   0  0  2  0  0  0  0  0  0  0  0  0
    5.0537  -24.5762    9.8084 F   0  0  0  0  0  0  0  0  0  0  0  0
    8.4725  -27.7078   12.0170 N   0  0  0  0  0  0  0  0  0  0  0  0
    4.1926  -27.5171    6.7701 N   0  0  0  0  0  0  0  0  0  0  0  0
    4.5489  -34.6915   10.2304 N   0  0  0  0  0  0  0  0  0  0  0  0
    4.0354  -29.9675   11.8303 N   0  0  0  0  0  0  0  0  0  0  0  0
    6.3906  -29.2728   10.6827 O   0  0  0  0  0  0  0  0  0  0  0  0
    7.6522  -31.0284    8.5866 O   0  0  0  0  0  0  0  0  0  0  0  0
    7.0457  -33.8493    8.9071 O   0  0  0  0  0  0  0  0  0  0  0  0
    7.2040  -25.1782   11.5784 O   0  0  0  0  0  0  0  0  0  0  0  0
    6.5001  -27.9397    8.6810 O   0  0  0  0  0  0  0  0  0  0  0  0
  1  5  1  0  0  0  0
  1 18  1  1  0  0  0
  2 18  1  1  0  0  0
  2  3  1  0  0  0  0
  2 12  1  0  0  0  0
  3 19  1  6  0  0  0
  3  4  1  0  0  0  0
  4 20  1  1  0  0  0
  4 10  1  0  0  0  0
  5  6  1  0  0  0  0
  5 14  1  1  0  0  0
  6 21  1  6  0  0  0
  7 13  1  1  0  0  0
  7  6  1  0  0  0  0
  8  9  1  6  0  0  0
  8  7  1  0  0  0  0
 10 16  1  6  0  0  0
 11 10  1  0  0  0  0
 12 17  1  6  0  0  0
 12 11  1  0  0  0  0
 15  9  1  0  0  0  0
 22  8  1  0  0  0  0
 22  1  1  0  0  0  0
M  END
>  <CHROM.1>
-176.85107791,59.75981401,178.33958020,6.03013248,-29.20179081,9.94451093
-1.45490359,0.97399496,3.02364355

>  <Name>
lig.pdb

>  <RI>
0

>  <Rbt.Current_Directory>
/home/itssahil/PROJECTS/Mol_Feturizer/New_Systems/rnas/5bxk

>  <Rbt.Executable>
rbdock ($Id: //depot/dev/client3/rdock/2013.1/src/exe/rbdock.cxx#4 $)

>  <Rbt.Library>
libRbt.so (2013.1, Build901 2013/11/27)

>  <Rbt.Parameter_File>
/export/apps/rDock/src/rDock_2013.1_src/data/scripts/dock_solv.prm

>  <Rbt.Receptor>
prm/blind_docking_80.prm

>  <SCORE>
-7.311

>  <SCORE.INTER>
-3.03321

>  <SCORE.INTER.CONST>
1

>  <SCORE.INTER.POLAR>
0

>  <SCORE.INTER.ROT>
3

>  <SCORE.INTER.SOLV>
20.076

>  <SCORE.INTER.VDW>
-14.3141

>  <SCORE.INTER.norm>
-0.137873

>  <SCORE.INTRA>
-4.27779

>  <SCORE.INTRA.DIHEDRAL>
-6.98811

>  <SCORE.INTRA.DIHEDRAL.0>
7.18044

>  <SCORE.INTRA.POLAR>
0

>  <SCORE.INTRA.POLAR.0>
0

>  <SCORE.INTRA.REPUL>
0

>  <SCORE.INTRA.REPUL.0>
0

>  <SCORE.INTRA.SOLV>
-1.78392

>  <SCORE.INTRA.SOLV.lig_0>
-72.0615

>  <SCORE.INTRA.VDW>
0.108226

>  <SCORE.INTRA.VDW.0>
-1.54792

>  <SCORE.INTRA.norm>
-0.194445

>  <SCORE.RESTR>
0

>  <SCORE.RESTR.CAVITY>
0

>  <SCORE.RESTR.norm>
0

>  <SCORE.SYSTEM>
0

>  <SCORE.SYSTEM.CONST>
0

>  <SCORE.SYSTEM.DIHEDRAL>
0

>  <SCORE.SYSTEM.SOLV>
0

>  <SCORE.SYSTEM.norm>
0

>  <SCORE.heavy>
22

>  <SCORE.norm>
-0.332318

>  <RMSD>
29.661

$$$$
lig.pdb
 OpenBabel11021811523D
libRbt.so/2013.1/901 2013/11/27
 22 23  0  0  0  0  0  0  0  0999 V2000
    7.1666  -28.4005    9.9646 C   0  0  1  0  0  0  0  0  0  0  0  0
    5.7825  -30.4661   10.2220 C   0  0  1  0  0  0  0  0  0  0  0  0
    6.8876  -31.5681    9.7185 C   0  0  1  0  0  0  0  0  0  0  0  0
    6.0835  -32.8875    9.2628 C   0  0  2  0  0  0  0  0  0  0  0  0
    7.7747  -27.1303   10.7135 C   0  0  1  0  0  0  0  0  0  0  0  0
    6.6387  -26.0851   11.0426 C   0  0  2  0  0  0  0  0  0  0  0  0
    5.9934  -25.5864    9.6580 C   0  0  1  0  0  0  0  0  0  0  0  0
    5.2963  -26.8295    8.8875 C   0  0  1  0  0  0  0  0  0  0  0  0
    4.6336  -26.4372    7.5379 C   0  0  0  0  0  0  0  0  0  0  0  0
    5.3263  -33.4650   10.5571 C   0  0  1  0  0  0  0  0  0  0  0  0
    4.2618  -32.3513   11.0312 C   0  0  0  0  0  0  0  0  0  0  0  0
    5.0030  -31.0088   11.4437 C   0  0  2  0  0  0  0  0  0  0  0  0
    4.9378  -24.5918    9.8768 F   0  0  0  0  0  0  0  0  0  0  0  0
    8.4659  -27.6813   11.9698 N   0  0  0  0  0  0  0  0  0  0  0  0
    3.9950  -27.5088    6.8656 N   0  0  0  0  0  0  0  0  0  0  0  0
    4.5443  -34.6907   10.1998 N   0  0  0  0  0  0  0  0  0  0  0  0
    4.0485  -29.9857   11.8601 N   0  0  0  0  0  0  0  0  0  0  0  0
    6.3785  -29.2713   10.6741 O   0  0  0  0  0  0  0  0  0  0  0  0
    7.6039  -31.0005    8.5349 O   0  0  0  0  0  0  0  0  0  0  0  0
    7.0122  -33.8265    8.8369 O   0  0  0  0  0  0  0  0  0  0  0  0
    7.1425  -25.1709   11.5864 O   0  0  0  0  0  0  0  0  0  0  0  0
    6.4139  -27.9191    8.6826 O   0  0  0  0  0  0  0  0  0  0  0  0
  1  5  1  0  0  0  0
  1 18  1  1  0  0  0
  2 18  1  1  0  0  0
  2  3  1  0  0  0  0
  2 12  1  0  0  0  0
  3 19  1  6  0  0  0
  3  4  1  0  0  0  0
  4 20  1  1  0  0  0
  4 10  1  0  0  0  0
  5  6  1  0  0  0  0
  5 14  1  1  0  0  0
  6 21  1  6  0  0  0
  7 13  1  1  0  0  0
  7  6  1  0  0  0  0
  8  9  1  6  0  0  0
  8  7  1  0  0  0  0
 10 16  1  6  0  0  0
 11 10  1  0  0  0  0
 12 17  1  6  0  0  0
 12 11  1  0  0  0  0
 15  9  1  0  0  0  0
 22  8  1  0  0  0  0
 22  1  1  0  0  0  0
M  END
>  <CHROM.1>
-177.80485483,60.84576970,-178.73667774,5.97843196,-29.19504543,9.94352370
-1.48124660,0.92314985,3.05890035

>  <Name>
lig.pdb

>  <RI>
0

>  <Rbt.Current_Directory>
/home/itssahil/PROJECTS/Mol_Feturizer/New_Systems/rnas/5bxk

>  <Rbt.Executable>
rbdock ($Id: //depot/dev/client3/rdock/2013.1/src/exe/rbdock.cxx#4 $)

>  <Rbt.Library>
libRbt.so (2013.1, Build901 2013/11/27)

>  <Rbt.Parameter_File>
/export/apps/rDock/src/rDock_2013.1_src/data/scripts/dock_solv.prm

>  <Rbt.Receptor>
prm/blind_docking_100.prm

>  <SCORE>
-7.31821

>  <SCORE.INTER>
-3.00392

>  <SCORE.INTER.CONST>
1

>  <SCORE.INTER.POLAR>
0

>  <SCORE.INTER.ROT>
3

>  <SCORE.INTER.SOLV>
19.8887

>  <SCORE.INTER.VDW>
-14.2322

>  <SCORE.INTER.norm>
-0.136542

>  <SCORE.INTRA>
-4.31428

>  <SCORE.INTRA.DIHEDRAL>
-7.01259

>  <SCORE.INTRA.DIHEDRAL.0>
7.18044

>  <SCORE.INTRA.POLAR>
0

>  <SCORE.INTRA.POLAR.0>
0

>  <SCORE.INTRA.REPUL>
0

>  <SCORE.INTRA.REPUL.0>
0

>  <SCORE.INTRA.SOLV>
-1.8052

>  <SCORE.INTRA.SOLV.lig_0>
-72.0615

>  <SCORE.INTRA.VDW>
0.0946085

>  <SCORE.INTRA.VDW.0>
-1.54792

>  <SCORE.INTRA.norm>
-0.196104

>  <SCORE.RESTR>
0

>  <SCORE.RESTR.CAVITY>
0

>  <SCORE.RESTR.norm>
0

>  <SCORE.SYSTEM>
0

>  <SCORE.SYSTEM.CONST>
0

>  <SCORE.SYSTEM.DIHEDRAL>
0

>  <SCORE.SYSTEM.SOLV>
0

>  <SCORE.SYSTEM.norm>
0

>  <SCORE.heavy>
22

>  <SCORE.norm>
-0.332646

>  <RMSD>
29.677

$$$$
lig.pdb
 OpenBabel11021811523D
libRbt.so/2013.1/901 2013/11/27
 22 23  0  0  0  0  0  0  0  0999 V2000
    7.1816  -29.3305   10.1505 C   0  0  1  0  0  0  0  0  0  0  0  0
    5.9257  -29.1157    7.9999 C   0  0  1  0  0  0  0  0  0  0  0  0
    6.9022  -29.9372    6.9700 C   0  0  1  0  0  0  0  0  0  0  0  0
    6.5928  -29.4058    5.4811 C   0  0  2  0  0  0  0  0  0  0  0  0
    7.1831  -29.9885   11.6034 C   0  0  1  0  0  0  0  0  0  0  0  0
    6.1534  -29.2519   12.5460 C   0  0  2  0  0  0  0  0  0  0  0  0
    6.6094  -27.7180   12.6925 C   0  0  1  0  0  0  0  0  0  0  0  0
    6.5568  -26.9800   11.2511 C   0  0  1  0  0  0  0  0  0  0  0  0
    6.9727  -25.4836   11.2984 C   0  0  0  0  0  0  0  0  0  0  0  0
    5.0632  -29.7666    5.1457 C   0  0  1  0  0  0  0  0  0  0  0  0
    4.1362  -28.9550    6.1851 C   0  0  0  0  0  0  0  0  0  0  0  0
    4.4405  -29.4068    7.6768 C   0  0  2  0  0  0  0  0  0  0  0  0
    5.7113  -26.9653   13.5748 F   0  0  0  0  0  0  0  0  0  0  0  0
    6.8448  -31.4713   11.3874 N   0  0  0  0  0  0  0  0  0  0  0  0
    6.0799  -24.6500   12.0167 N   0  0  0  0  0  0  0  0  0  0  0  0
    4.7032  -29.2863    3.7741 N   0  0  0  0  0  0  0  0  0  0  0  0
    3.6185  -28.6673    8.6301 N   0  0  0  0  0  0  0  0  0  0  0  0
    6.0910  -29.5209    9.3400 O   0  0  0  0  0  0  0  0  0  0  0  0
    8.3205  -29.6148    7.3179 O   0  0  0  0  0  0  0  0  0  0  0  0
    7.4142  -30.0978    4.6026 O   0  0  0  0  0  0  0  0  0  0  0  0
    6.2007  -29.7722   13.6007 O   0  0  0  0  0  0  0  0  0  0  0  0
    7.4886  -27.8043   10.2864 O   0  0  0  0  0  0  0  0  0  0  0  0
  1  5  1  0  0  0  0
  1 18  1  1  0  0  0
  2 18  1  1  0  0  0
  2  3  1  0  0  0  0
  2 12  1  0  0  0  0
  3 19  1  1  0  0  0
  3  4  1  0  0  0  0
  4 20  1  6  0  0  0
  4 10  1  0  0  0  0
  5  6  1  0  0  0  0
  5 14  1  6  0  0  0
  6 21  1  1  0  0  0
  7 13  1  1  0  0  0
  7  6  1  0  0  0  0
  8  9  1  1  0  0  0
  8  7  1  0  0  0  0
 10 16  1  6  0  0  0
 11 10  1  0  0  0  0
 12 17  1  1  0  0  0
 12 11  1  0  0  0  0
 15  9  1  0  0  0  0
 22  8  1  0  0  0  0
 22  1  1  0  0  0  0
M  END
>  <CHROM.1>
-174.98560458,68.38261206,-66.74687416,6.20956407,-28.76095304,9.31632421
-1.34536673,1.21367533,-2.04542497

>  <Name>
lig.pdb

>  <RI>
0

>  <Rbt.Current_Directory>
/home/itssahil/PROJECTS/Mol_Feturizer/New_Systems/rnas/5bxk

>  <Rbt.Executable>
rbdock ($Id: //depot/dev/client3/rdock/2013.1/src/exe/rbdock.cxx#4 $)

>  <Rbt.Library>
libRbt.so (2013.1, Build901 2013/11/27)

>  <Rbt.Parameter_File>
/export/apps/rDock/src/rDock_2013.1_src/data/scripts/dock_solv.prm

>  <Rbt.Receptor>
prm/blind_docking_80.prm

>  <SCORE>
-4.49519

>  <SCORE.INTER>
-0.933685

>  <SCORE.INTER.CONST>
1

>  <SCORE.INTER.POLAR>
0

>  <SCORE.INTER.ROT>
3

>  <SCORE.INTER.SOLV>
9.86111

>  <SCORE.INTER.VDW>
-9.50949

>  <SCORE.INTER.norm>
-0.0424402

>  <SCORE.INTRA>
-3.56151

>  <SCORE.INTRA.DIHEDRAL>
-6.42343

>  <SCORE.INTRA.DIHEDRAL.0>
7.18044

>  <SCORE.INTRA.POLAR>
0

>  <SCORE.INTRA.POLAR.0>
0

>  <SCORE.INTRA.REPUL>
0

>  <SCORE.INTRA.REPUL.0>
0

>  <SCORE.INTRA.SOLV>
-0.809417

>  <SCORE.INTRA.SOLV.lig_0>
-72.0615

>  <SCORE.INTRA.VDW>
0.054918

>  <SCORE.INTRA.VDW.0>
-1.54792

>  <SCORE.INTRA.norm>
-0.161887

>  <SCORE.RESTR>
0

>  <SCORE.RESTR.CAVITY>
0

>  <SCORE.RESTR.norm>
0

>  <SCORE.SYSTEM>
0

>  <SCORE.SYSTEM.CONST>
0

>  <SCORE.SYSTEM.DIHEDRAL>
0

>  <SCORE.SYSTEM.SOLV>
0

>  <SCORE.SYSTEM.norm>
0

>  <SCORE.heavy>
22

>  <SCORE.norm>
-0.204327

>  <RMSD>
29.701

$$$$
lig.pdb
 OpenBabel11021811523D
libRbt.so/2013.1/901 2013/11/27
 22 23  0  0  0  0  0  0  0  0999 V2000
    6.7487  -29.0476    7.4781 C   0  0  1  0  0  0  0  0  0  0  0  0
    5.3615  -27.4911    8.8571 C   0  0  1  0  0  0  0  0  0  0  0  0
    6.6145  -26.7815    9.6416 C   0  0  1  0  0  0  0  0  0  0  0  0
    6.0234  -26.0843   10.9681 C   0  0  2  0  0  0  0  0  0  0  0  0
    6.9187  -29.7219    6.0427 C   0  0  1  0  0  0  0  0  0  0  0  0
    5.7185  -30.7032    5.7462 C   0  0  2  0  0  0  0  0  0  0  0  0
    5.7345  -31.8702    6.8507 C   0  0  1  0  0  0  0  0  0  0  0  0
    5.4933  -31.2456    8.3261 C   0  0  1  0  0  0  0  0  0  0  0  0
    5.4820  -32.3069    9.4610 C   0  0  0  0  0  0  0  0  0  0  0  0
    4.9922  -24.9449   10.4986 C   0  0  1  0  0  0  0  0  0  0  0  0
    3.7853  -25.6766    9.7200 C   0  0  0  0  0  0  0  0  0  0  0  0
    4.3255  -26.4248    8.4275 C   0  0  2  0  0  0  0  0  0  0  0  0
    4.6569  -32.8411    6.6321 F   0  0  0  0  0  0  0  0  0  0  0  0
    7.0024  -28.5571    5.0448 N   0  0  0  0  0  0  0  0  0  0  0  0
    5.2419  -31.7792   10.7540 N   0  0  0  0  0  0  0  0  0  0  0  0
    4.3924  -24.2623   11.6885 N   0  0  0  0  0  0  0  0  0  0  0  0
    3.2442  -27.1056    7.7215 N   0  0  0  0  0  0  0  0  0  0  0  0
    5.7591  -28.1141    7.6566 O   0  0  0  0  0  0  0  0  0  0  0  0
    7.5785  -27.8524   10.0418 O   0  0  0  0  0  0  0  0  0  0  0  0
    7.0778  -25.4794   11.6373 O   0  0  0  0  0  0  0  0  0  0  0  0
    5.8980  -31.1743    4.6826 O   0  0  0  0  0  0  0  0  0  0  0  0
    6.6237  -30.1739    8.5541 O   0  0  0  0  0  0  0  0  0  0  0  0
  1  5  1  0  0  0  0
  1 18  1  6  0  0  0
  2 18  1  6  0  0  0
  2  3  1  0  0  0  0
  2 12  1  0  0  0  0
  3 19  1  1  0  0  0
  3  4  1  0  0  0  0
  4 20  1  6  0  0  0
  4 10  1  0  0  0  0
  5  6  1  0  0  0  0
  5 14  1  6  0  0  0
  6 21  1  6  0  0  0
  7 13  1  6  0  0  0
  7  6  1  0  0  0  0
  8  9  1  1  0  0  0
  8  7  1  0  0  0  0
 10 16  1  1  0  0  0
 11 10  1  0  0  0  0
 12 17  1  1  0  0  0
 12 11  1  0  0  0  0
 15  9  1  0  0  0  0
 22  8  1  0  0  0  0
 22  1  1  0  0  0  0
M  END
>  <CHROM.1>
173.82170553,53.82426688,-178.64832858,5.67602993,-28.69120723,8.45222347
0.62152102,1.51273572,-1.60323193

>  <Name>
lig.pdb

>  <RI>
0

>  <Rbt.Current_Directory>
/home/itssahil/PROJECTS/Mol_Feturizer/New_Systems/rnas/5bxk

>  <Rbt.Executable>
rbdock ($Id: //depot/dev/client3/rdock/2013.1/src/exe/rbdock.cxx#4 $)

>  <Rbt.Library>
libRbt.so (2013.1, Build901 2013/11/27)

>  <Rbt.Parameter_File>
/export/apps/rDock/src/rDock_2013.1_src/data/scripts/dock_solv.prm

>  <Rbt.Receptor>
prm/blind_docking_100.prm

>  <SCORE>
-5.85269

>  <SCORE.INTER>
-1.75323

>  <SCORE.INTER.CONST>
1

>  <SCORE.INTER.POLAR>
0

>  <SCORE.INTER.ROT>
3

>  <SCORE.INTER.SOLV>
16.1722

>  <SCORE.INTER.VDW>
-12.1596

>  <SCORE.INTER.norm>
-0.0796923

>  <SCORE.INTRA>
-4.09946

>  <SCORE.INTRA.DIHEDRAL>
-6.6718

>  <SCORE.INTRA.DIHEDRAL.0>
7.18044

>  <SCORE.INTRA.POLAR>
0

>  <SCORE.INTRA.POLAR.0>
0

>  <SCORE.INTRA.REPUL>
0

>  <SCORE.INTRA.REPUL.0>
0

>  <SCORE.INTRA.SOLV>
-1.78394

>  <SCORE.INTRA.SOLV.lig_0>
-72.0615

>  <SCORE.INTRA.VDW>
0.128415

>  <SCORE.INTRA.VDW.0>
-1.54792

>  <SCORE.INTRA.norm>
-0.186339

>  <SCORE.RESTR>
0

>  <SCORE.RESTR.CAVITY>
0

>  <SCORE.RESTR.norm>
0

>  <SCORE.SYSTEM>
0

>  <SCORE.SYSTEM.CONST>
0

>  <SCORE.SYSTEM.DIHEDRAL>
0

>  <SCORE.SYSTEM.SOLV>
0

>  <SCORE.SYSTEM.norm>
0

>  <SCORE.heavy>
22

>  <SCORE.norm>
-0.266031

>  <RMSD>
29.832

$$$$
lig.pdb
 OpenBabel11021811523D
libRbt.so/2013.1/901 2013/11/27
 22 23  0  0  0  0  0  0  0  0999 V2000
    5.1414  -28.3776    6.8701 C   0  0  1  0  0  0  0  0  0  0  0  0
    5.7775  -27.5711    9.1489 C   0  0  1  0  0  0  0  0  0  0  0  0
    7.0107  -27.8123   10.2026 C   0  0  1  0  0  0  0  0  0  0  0  0
    6.6043  -27.1086   11.5936 C   0  0  2  0  0  0  0  0  0  0  0  0
    4.0309  -29.5008    7.0928 C   0  0  1  0  0  0  0  0  0  0  0  0
    4.6867  -30.9365    7.0881 C   0  0  2  0  0  0  0  0  0  0  0  0
    5.3611  -31.1799    5.6500 C   0  0  1  0  0  0  0  0  0  0  0  0
    6.5491  -30.1065    5.4018 C   0  0  1  0  0  0  0  0  0  0  0  0
    7.2684  -30.2739    4.0347 C   0  0  0  0  0  0  0  0  0  0  0  0
    6.4594  -25.5327   11.3155 C   0  0  1  0  0  0  0  0  0  0  0  0
    5.2512  -25.3361   10.2667 C   0  0  0  0  0  0  0  0  0  0  0  0
    5.5814  -26.0578    8.8912 C   0  0  2  0  0  0  0  0  0  0  0  0
    5.9778  -32.5074    5.5559 F   0  0  0  0  0  0  0  0  0  0  0  0
    3.3531  -29.1548    8.4272 N   0  0  0  0  0  0  0  0  0  0  0  0
    6.4429  -30.0428    2.9063 N   0  0  0  0  0  0  0  0  0  0  0  0
    6.0679  -24.8158   12.5702 N   0  0  0  0  0  0  0  0  0  0  0  0
    4.4875  -25.9010    7.9373 N   0  0  0  0  0  0  0  0  0  0  0  0
    6.0366  -28.1243    7.8785 O   0  0  0  0  0  0  0  0  0  0  0  0
    7.1515  -29.2846   10.4238 O   0  0  0  0  0  0  0  0  0  0  0  0
    7.6441  -27.3066   12.4908 O   0  0  0  0  0  0  0  0  0  0  0  0
    3.8253  -31.7221    7.2497 O   0  0  0  0  0  0  0  0  0  0  0  0
    5.9035  -28.6772    5.5392 O   0  0  0  0  0  0  0  0  0  0  0  0
  1  5  1  0  0  0  0
  1 18  1  1  0  0  0
  2 18  1  6  0  0  0
  2  3  1  0  0  0  0
  2 12  1  0  0  0  0
  3 19  1  1  0  0  0
  3  4  1  0  0  0  0
  4 20  1  1  0  0  0
  4 10  1  0  0  0  0
  5  6  1  0  0  0  0
  5 14  1  1  0  0  0
  6 21  1  6  0  0  0
  7 13  1  1  0  0  0
  7  6  1  0  0  0  0
  8  9  1  6  0  0  0
  8  7  1  0  0  0  0
 10 16  1  1  0  0  0
 11 10  1  0  0  0  0
 12 17  1  6  0  0  0
 12 11  1  0  0  0  0
 15  9  1  0  0  0  0
 22  8  1  0  0  0  0
 22  1  1  0  0  0  0
M  END
>  <CHROM.1>
-66.68041656,163.98739498,64.13025071,5.77118053,-28.59774053,8.08681998
2.19992671,1.43435620,-2.84106132

>  <Name>
lig.pdb

>  <RI>
0

>  <Rbt.Current_Directory>
/home/itssahil/PROJECTS/Mol_Feturizer/New_Systems/rnas/5bxk

>  <Rbt.Executable>
rbdock ($Id: //depot/dev/client3/rdock/2013.1/src/exe/rbdock.cxx#4 $)

>  <Rbt.Library>
libRbt.so (2013.1, Build901 2013/11/27)

>  <Rbt.Parameter_File>
/export/apps/rDock/src/rDock_2013.1_src/data/scripts/dock_solv.prm

>  <Rbt.Receptor>
prm/blind_docking_100.prm

>  <SCORE>
-3.72398

>  <SCORE.INTER>
-2.86226

>  <SCORE.INTER.CONST>
1

>  <SCORE.INTER.POLAR>
0

>  <SCORE.INTER.ROT>
3

>  <SCORE.INTER.SOLV>
14.2687

>  <SCORE.INTER.VDW>
-12.2644

>  <SCORE.INTER.norm>
-0.130103

>  <SCORE.INTRA>
-0.861717

>  <SCORE.INTRA.DIHEDRAL>
-5.57997

>  <SCORE.INTRA.DIHEDRAL.0>
7.18044

>  <SCORE.INTRA.POLAR>
0

>  <SCORE.INTRA.POLAR.0>
0

>  <SCORE.INTRA.REPUL>
0

>  <SCORE.INTRA.REPUL.0>
0

>  <SCORE.INTRA.SOLV>
2.97666

>  <SCORE.INTRA.SOLV.lig_0>
-72.0615

>  <SCORE.INTRA.VDW>
0.439936

>  <SCORE.INTRA.VDW.0>
-1.54792

>  <SCORE.INTRA.norm>
-0.039169

>  <SCORE.RESTR>
0

>  <SCORE.RESTR.CAVITY>
0

>  <SCORE.RESTR.norm>
0

>  <SCORE.SYSTEM>
0

>  <SCORE.SYSTEM.CONST>
0

>  <SCORE.SYSTEM.DIHEDRAL>
0

>  <SCORE.SYSTEM.SOLV>
0

>  <SCORE.SYSTEM.norm>
0

>  <SCORE.heavy>
22

>  <SCORE.norm>
-0.169272

>  <RMSD>
29.859

$$$$
lig.pdb
 OpenBabel11021811523D
libRbt.so/2013.1/901 2013/11/27
 22 23  0  0  0  0  0  0  0  0999 V2000
    7.0294  -29.8718    9.7554 C   0  0  1  0  0  0  0  0  0  0  0  0
    5.7484  -29.3157    7.6821 C   0  0  1  0  0  0  0  0  0  0  0  0
    6.7358  -30.0440    6.5941 C   0  0  1  0  0  0  0  0  0  0  0  0
    6.4458  -29.3793    5.1556 C   0  0  2  0  0  0  0  0  0  0  0  0
    6.9425  -30.4966   11.2204 C   0  0  1  0  0  0  0  0  0  0  0  0
    6.1211  -29.5489   12.1788 C   0  0  2  0  0  0  0  0  0  0  0  0
    6.8913  -28.1423   12.2810 C   0  0  1  0  0  0  0  0  0  0  0  0
    6.9452  -27.4285   10.8276 C   0  0  1  0  0  0  0  0  0  0  0  0
    7.6651  -26.0515   10.8327 C   0  0  0  0  0  0  0  0  0  0  0  0
    4.9197  -29.7033    4.7706 C   0  0  1  0  0  0  0  0  0  0  0  0
    3.9818  -28.9859    5.8679 C   0  0  0  0  0  0  0  0  0  0  0  0
    4.2667  -29.5716    7.3162 C   0  0  2  0  0  0  0  0  0  0  0  0
    6.1998  -27.2071   13.1748 F   0  0  0  0  0  0  0  0  0  0  0  0
    6.2957  -31.8787   11.0440 N   0  0  0  0  0  0  0  0  0  0  0  0
    7.0287  -25.0608   11.6211 N   0  0  0  0  0  0  0  0  0  0  0  0
    4.5775  -29.1000    3.4438 N   0  0  0  0  0  0  0  0  0  0  0  0
    3.4347  -28.9186    8.3224 N   0  0  0  0  0  0  0  0  0  0  0  0
    5.8965  -29.8409    8.9820 O   0  0  0  0  0  0  0  0  0  0  0  0
    8.1504  -29.7589    6.9867 O   0  0  0  0  0  0  0  0  0  0  0  0
    7.2765  -29.9918    4.2281 O   0  0  0  0  0  0  0  0  0  0  0  0
    6.0942  -30.0538   13.2416 O   0  0  0  0  0  0  0  0  0  0  0  0
    7.6520  -28.4418    9.8518 O   0  0  0  0  0  0  0  0  0  0  0  0
  1  5  1  0  0  0  0
  1 18  1  1  0  0  0
  2 18  1  1  0  0  0
  2  3  1  0  0  0  0
  2 12  1  0  0  0  0
  3 19  1  1  0  0  0
  3  4  1  0  0  0  0
  4 20  1  6  0  0  0
  4 10  1  0  0  0  0
  5  6  1  0  0  0  0
  5 14  1  6  0  0  0
  6 21  1  1  0  0  0
  7 13  1  1  0  0  0
  7  6  1  0  0  0  0
  8  9  1  1  0  0  0
  8  7  1  0  0  0  0
 10 16  1  6  0  0  0
 11 10  1  0  0  0  0
 12 17  1  1  0  0  0
 12 11  1  0  0  0  0
 15  9  1  0  0  0  0
 22  8  1  0  0  0  0
 22  1  1  0  0  0  0
M  END
>  <CHROM.1>
178.70234350,59.59390350,-63.44619477,6.22116701,-29.01525346,8.94534639
0.77159245,1.36293621,2.16234559

>  <Name>
lig.pdb

>  <RI>
0

>  <Rbt.Current_Directory>
/home/itssahil/PROJECTS/Mol_Feturizer/New_Systems/rnas/5bxk

>  <Rbt.Executable>
rbdock ($Id: //depot/dev/client3/rdock/2013.1/src/exe/rbdock.cxx#4 $)

>  <Rbt.Library>
libRbt.so (2013.1, Build901 2013/11/27)

>  <Rbt.Parameter_File>
/export/apps/rDock/src/rDock_2013.1_src/data/scripts/dock_solv.prm

>  <Rbt.Receptor>
prm/blind_docking_100.prm

>  <SCORE>
-5.41524

>  <SCORE.INTER>
-1.57026

>  <SCORE.INTER.CONST>
1

>  <SCORE.INTER.POLAR>
0

>  <SCORE.INTER.ROT>
3

>  <SCORE.INTER.SOLV>
11.5578

>  <SCORE.INTER.VDW>
-10.4994

>  <SCORE.INTER.norm>
-0.0713756

>  <SCORE.INTRA>
-3.84498

>  <SCORE.INTRA.DIHEDRAL>
-6.99407

>  <SCORE.INTRA.DIHEDRAL.0>
7.18044

>  <SCORE.INTRA.POLAR>
0

>  <SCORE.INTRA.POLAR.0>
0

>  <SCORE.INTRA.REPUL>
0

>  <SCORE.INTRA.REPUL.0>
0

>  <SCORE.INTRA.SOLV>
-0.916637

>  <SCORE.INTRA.SOLV.lig_0>
-72.0615

>  <SCORE.INTRA.VDW>
0.110379

>  <SCORE.INTRA.VDW.0>
-1.54792

>  <SCORE.INTRA.norm>
-0.174772

>  <SCORE.RESTR>
0

>  <SCORE.RESTR.CAVITY>
0

>  <SCORE.RESTR.norm>
0

>  <SCORE.SYSTEM>
0

>  <SCORE.SYSTEM.CONST>
0

>  <SCORE.SYSTEM.DIHEDRAL>
0

>  <SCORE.SYSTEM.SOLV>
0

>  <SCORE.SYSTEM.norm>
0

>  <SCORE.heavy>
22

>  <SCORE.norm>
-0.246147

>  <RMSD>
30.074

$$$$
lig.pdb
 OpenBabel11021811523D
libRbt.so/2013.1/901 2013/11/27
 22 23  0  0  0  0  0  0  0  0999 V2000
    6.9512  -28.5053    9.7384 C   0  0  1  0  0  0  0  0  0  0  0  0
    5.5577  -30.5799    9.7873 C   0  0  1  0  0  0  0  0  0  0  0  0
    4.6737  -30.2965    8.4354 C   0  0  1  0  0  0  0  0  0  0  0  0
    4.1444  -31.7190    7.8954 C   0  0  2  0  0  0  0  0  0  0  0  0
    7.5755  -27.3322   10.6206 C   0  0  1  0  0  0  0  0  0  0  0  0
    6.4682  -26.2716   10.9951 C   0  0  2  0  0  0  0  0  0  0  0  0
    5.9044  -25.6273    9.6352 C   0  0  1  0  0  0  0  0  0  0  0  0
    5.1932  -26.7676    8.7303 C   0  0  1  0  0  0  0  0  0  0  0  0
    4.6064  -26.2314    7.3952 C   0  0  0  0  0  0  0  0  0  0  0  0
    5.4310  -32.5968    7.5003 C   0  0  1  0  0  0  0  0  0  0  0  0
    6.2814  -32.8415    8.8477 C   0  0  0  0  0  0  0  0  0  0  0  0
    6.7844  -31.4610    9.4502 C   0  0  2  0  0  0  0  0  0  0  0  0
    4.8802  -24.6108    9.8986 F   0  0  0  0  0  0  0  0  0  0  0  0
    8.1887  -28.0195   11.8500 N   0  0  0  0  0  0  0  0  0  0  0  0
    3.9728  -27.2159    6.5967 N   0  0  0  0  0  0  0  0  0  0  0  0
    5.0095  -33.9437    7.0006 N   0  0  0  0  0  0  0  0  0  0  0  0
    7.5428  -31.6675   10.6805 N   0  0  0  0  0  0  0  0  0  0  0  0
    6.0992  -29.3996   10.3358 O   0  0  0  0  0  0  0  0  0  0  0  0
    3.4998  -29.4521    8.8165 O   0  0  0  0  0  0  0  0  0  0  0  0
    3.3965  -31.4881    6.7496 O   0  0  0  0  0  0  0  0  0  0  0  0
    6.9833  -25.4306   11.6375 O   0  0  0  0  0  0  0  0  0  0  0  0
    6.2751  -27.8824    8.4748 O   0  0  0  0  0  0  0  0  0  0  0  0
  1  5  1  0  0  0  0
  1 18  1  1  0  0  0
  2 18  1  6  0  0  0
  2  3  1  0  0  0  0
  2 12  1  0  0  0  0
  3 19  1  1  0  0  0
  3  4  1  0  0  0  0
  4 20  1  6  0  0  0
  4 10  1  0  0  0  0
  5  6  1  0  0  0  0
  5 14  1  1  0  0  0
  6 21  1  1  0  0  0
  7 13  1  1  0  0  0
  7  6  1  0  0  0  0
  8  9  1  6  0  0  0
  8  7  1  0  0  0  0
 10 16  1  1  0  0  0
 11 10  1  0  0  0  0
 12 17  1  1  0  0  0
 12 11  1  0  0  0  0
 15  9  1  0  0  0  0
 22  8  1  0  0  0  0
 22  1  1  0  0  0  0
M  END
>  <CHROM.1>
-172.48693125,-59.25997101,-179.58672948,5.66817673,-28.97784183,9.14921152
-1.34923481,0.80636638,-2.97141634

>  <Name>
lig.pdb

>  <RI>
0

>  <Rbt.Current_Directory>
/home/itssahil/PROJECTS/Mol_Feturizer/New_Systems/rnas/5bxk

>  <Rbt.Executable>
rbdock ($Id: //depot/dev/client3/rdock/2013.1/src/exe/rbdock.cxx#4 $)

>  <Rbt.Library>
libRbt.so (2013.1, Build901 2013/11/27)

>  <Rbt.Parameter_File>
/export/apps/rDock/src/rDock_2013.1_src/data/scripts/dock_solv.prm

>  <Rbt.Receptor>
prm/blind_docking_40.prm

>  <SCORE>
-5.19137

>  <SCORE.INTER>
-2.31691

>  <SCORE.INTER.CONST>
1

>  <SCORE.INTER.POLAR>
0

>  <SCORE.INTER.ROT>
3

>  <SCORE.INTER.SOLV>
13.7901

>  <SCORE.INTER.VDW>
-11.7413

>  <SCORE.INTER.norm>
-0.105314

>  <SCORE.INTRA>
-2.87445

>  <SCORE.INTRA.DIHEDRAL>
-6.7769

>  <SCORE.INTRA.DIHEDRAL.0>
7.18044

>  <SCORE.INTRA.POLAR>
0

>  <SCORE.INTRA.POLAR.0>
0

>  <SCORE.INTRA.REPUL>
0

>  <SCORE.INTRA.REPUL.0>
0

>  <SCORE.INTRA.SOLV>
1.51276

>  <SCORE.INTRA.SOLV.lig_0>
-72.0615

>  <SCORE.INTRA.VDW>
-0.242383

>  <SCORE.INTRA.VDW.0>
-1.54792

>  <SCORE.INTRA.norm>
-0.130657

>  <SCORE.RESTR>
0

>  <SCORE.RESTR.CAVITY>
0

>  <SCORE.RESTR.norm>
0

>  <SCORE.SYSTEM>
0

>  <SCORE.SYSTEM.CONST>
0

>  <SCORE.SYSTEM.DIHEDRAL>
0

>  <SCORE.SYSTEM.SOLV>
0

>  <SCORE.SYSTEM.norm>
0

>  <SCORE.heavy>
22

>  <SCORE.norm>
-0.235971

>  <RMSD>
30.082

$$$$
lig.pdb
 OpenBabel11021811523D
libRbt.so/2013.1/901 2013/11/27
 22 23  0  0  0  0  0  0  0  0999 V2000
    6.2579  -28.0511    9.1392 C   0  0  1  0  0  0  0  0  0  0  0  0
    5.4094  -30.3056    9.8067 C   0  0  1  0  0  0  0  0  0  0  0  0
    6.6026  -31.2591    9.2097 C   0  0  1  0  0  0  0  0  0  0  0  0
    5.9879  -32.7342    9.0059 C   0  0  2  0  0  0  0  0  0  0  0  0
    6.5018  -26.5535    9.6307 C   0  0  1  0  0  0  0  0  0  0  0  0
    5.1292  -25.8508    9.9678 C   0  0  2  0  0  0  0  0  0  0  0  0
    4.2451  -25.7983    8.6269 C   0  0  1  0  0  0  0  0  0  0  0  0
    3.9067  -27.3001    8.1223 C   0  0  1  0  0  0  0  0  0  0  0  0
    3.0423  -27.3471    6.8319 C   0  0  0  0  0  0  0  0  0  0  0  0
    5.5581  -33.2846   10.4531 C   0  0  1  0  0  0  0  0  0  0  0  0
    4.3978  -32.3161   11.0134 C   0  0  0  0  0  0  0  0  0  0  0  0
    4.9404  -30.8334   11.1838 C   0  0  2  0  0  0  0  0  0  0  0  0
    2.9549  -25.1376    8.8515 F   0  0  0  0  0  0  0  0  0  0  0  0
    7.4347  -26.6628   10.8462 N   0  0  0  0  0  0  0  0  0  0  0  0
    2.6909  -28.6533    6.4095 N   0  0  0  0  0  0  0  0  0  0  0  0
    4.9634  -34.6534   10.3346 N   0  0  0  0  0  0  0  0  0  0  0  0
    3.8942  -29.9419   11.6757 N   0  0  0  0  0  0  0  0  0  0  0  0
    5.8438  -28.9873   10.0528 O   0  0  0  0  0  0  0  0  0  0  0  0
    7.0116  -30.7132    7.8789 O   0  0  0  0  0  0  0  0  0  0  0  0
    6.9924  -33.5484    8.5024 O   0  0  0  0  0  0  0  0  0  0  0  0
    5.3676  -24.7526   10.3176 O   0  0  0  0  0  0  0  0  0  0  0  0
    5.2864  -28.0297    7.9155 O   0  0  0  0  0  0  0  0  0  0  0  0
  1  5  1  0  0  0  0
  1 18  1  1  0  0  0
  2 18  1  1  0  0  0
  2  3  1  0  0  0  0
  2 12  1  0  0  0  0
  3 19  1  6  0  0  0
  3  4  1  0  0  0  0
  4 20  1  1  0  0  0
  4 10  1  0  0  0  0
  5  6  1  0  0  0  0
  5 14  1  1  0  0  0
  6 21  1  6  0  0  0
  7 13  1  1  0  0  0
  7  6  1  0  0  0  0
  8  9  1  6  0  0  0
  8  7  1  0  0  0  0
 10 16  1  6  0  0  0
 11 10  1  0  0  0  0
 12 17  1  6  0  0  0
 12 11  1  0  0  0  0
 15  9  1  0  0  0  0
 22  8  1  0  0  0  0
 22  1  1  0  0  0  0
M  END
>  <CHROM.1>
171.13240383,65.60640813,-177.47972505,5.18552743,-29.14969324,9.32696251
-1.84169888,0.86969760,-3.04646396

>  <Name>
lig.pdb

>  <RI>
0

>  <Rbt.Current_Directory>
/home/itssahil/PROJECTS/Mol_Feturizer/New_Systems/rnas/5bxk

>  <Rbt.Executable>
rbdock ($Id: //depot/dev/client3/rdock/2013.1/src/exe/rbdock.cxx#4 $)

>  <Rbt.Library>
libRbt.so (2013.1, Build901 2013/11/27)

>  <Rbt.Parameter_File>
/export/apps/rDock/src/rDock_2013.1_src/data/scripts/dock_solv.prm

>  <Rbt.Receptor>
prm/blind_docking_100.prm

>  <SCORE>
-5.17449

>  <SCORE.INTER>
-1.05625

>  <SCORE.INTER.CONST>
1

>  <SCORE.INTER.POLAR>
0

>  <SCORE.INTER.ROT>
3

>  <SCORE.INTER.SOLV>
14.626

>  <SCORE.INTER.VDW>
-11.1795

>  <SCORE.INTER.norm>
-0.0480112

>  <SCORE.INTRA>
-4.11824

>  <SCORE.INTRA.DIHEDRAL>
-6.50066

>  <SCORE.INTRA.DIHEDRAL.0>
7.18044

>  <SCORE.INTRA.POLAR>
0

>  <SCORE.INTRA.POLAR.0>
0

>  <SCORE.INTRA.REPUL>
0

>  <SCORE.INTRA.REPUL.0>
0

>  <SCORE.INTRA.SOLV>
-1.75381

>  <SCORE.INTRA.SOLV.lig_0>
-72.0615

>  <SCORE.INTRA.VDW>
0.00899491

>  <SCORE.INTRA.VDW.0>
-1.54792

>  <SCORE.INTRA.norm>
-0.187193

>  <SCORE.RESTR>
0

>  <SCORE.RESTR.CAVITY>
0

>  <SCORE.RESTR.norm>
0

>  <SCORE.SYSTEM>
0

>  <SCORE.SYSTEM.CONST>
0

>  <SCORE.SYSTEM.DIHEDRAL>
0

>  <SCORE.SYSTEM.SOLV>
0

>  <SCORE.SYSTEM.norm>
0

>  <SCORE.heavy>
22

>  <SCORE.norm>
-0.235204

>  <RMSD>
30.221

$$$$
lig.pdb
 OpenBabel11021811523D
libRbt.so/2013.1/901 2013/11/27
 22 23  0  0  0  0  0  0  0  0999 V2000
    5.7168  -28.3023    9.5088 C   0  0  1  0  0  0  0  0  0  0  0  0
    6.0724  -29.9208    7.6373 C   0  0  1  0  0  0  0  0  0  0  0  0
    6.4721  -31.2599    8.4954 C   0  0  1  0  0  0  0  0  0  0  0  0
    6.1169  -32.5418    7.5867 C   0  0  2  0  0  0  0  0  0  0  0  0
    6.1004  -26.8663   10.0875 C   0  0  1  0  0  0  0  0  0  0  0  0
    7.5703  -26.8755   10.6625 C   0  0  2  0  0  0  0  0  0  0  0  0
    7.6344  -27.9336   11.8702 C   0  0  1  0  0  0  0  0  0  0  0  0
    7.3219  -29.4259   11.3221 C   0  0  1  0  0  0  0  0  0  0  0  0
    7.3730  -30.5208   12.4234 C   0  0  0  0  0  0  0  0  0  0  0  0
    4.5290  -32.5370    7.3410 C   0  0  1  0  0  0  0  0  0  0  0  0
    4.1725  -31.2022    6.5105 C   0  0  0  0  0  0  0  0  0  0  0  0
    4.5528  -29.9057    7.3450 C   0  0  2  0  0  0  0  0  0  0  0  0
    8.9692  -27.9874   12.4761 F   0  0  0  0  0  0  0  0  0  0  0  0
    5.9191  -25.8864    8.9186 N   0  0  0  0  0  0  0  0  0  0  0  0
    7.1524  -31.8382   11.9503 N   0  0  0  0  0  0  0  0  0  0  0  0
    4.1301  -33.7005    6.4876 N   0  0  0  0  0  0  0  0  0  0  0  0
    4.2497  -28.6892    6.5970 N   0  0  0  0  0  0  0  0  0  0  0  0
    6.3159  -28.7296    8.3508 O   0  0  0  0  0  0  0  0  0  0  0  0
    7.9468  -31.2306    8.7421 O   0  0  0  0  0  0  0  0  0  0  0  0
    6.4506  -33.6800    8.3067 O   0  0  0  0  0  0  0  0  0  0  0  0
    7.7966  -25.7983   11.0792 O   0  0  0  0  0  0  0  0  0  0  0  0
    5.9063  -29.3685   10.6355 O   0  0  0  0  0  0  0  0  0  0  0  0
  1  5  1  0  0  0  0
  1 18  1  6  0  0  0
  2 18  1  1  0  0  0
  2  3  1  0  0  0  0
  2 12  1  0  0  0  0
  3 19  1  6  0  0  0
  3  4  1  0  0  0  0
  4 20  1  1  0  0  0
  4 10  1  0  0  0  0
  5  6  1  0  0  0  0
  5 14  1  6  0  0  0
  6 21  1  1  0  0  0
  7 13  1  6  0  0  0
  7  6  1  0  0  0  0
  8  9  1  1  0  0  0
  8  7  1  0  0  0  0
 10 16  1  6  0  0  0
 11 10  1  0  0  0  0
 12 17  1  6  0  0  0
 12 11  1  0  0  0  0
 15  9  1  0  0  0  0
 22  8  1  0  0  0  0
 22  1  1  0  0  0  0
M  END
>  <CHROM.1>
-176.41583616,-64.24800781,-177.69563297,6.35803850,-29.71512808,9.34625572
0.85605254,-0.98039910,0.07860001

>  <Name>
lig.pdb

>  <RI>
0

>  <Rbt.Current_Directory>
/home/itssahil/PROJECTS/Mol_Feturizer/New_Systems/rnas/5bxk

>  <Rbt.Executable>
rbdock ($Id: //depot/dev/client3/rdock/2013.1/src/exe/rbdock.cxx#4 $)

>  <Rbt.Library>
libRbt.so (2013.1, Build901 2013/11/27)

>  <Rbt.Parameter_File>
/export/apps/rDock/src/rDock_2013.1_src/data/scripts/dock_solv.prm

>  <Rbt.Receptor>
prm/blind_docking_60.prm

>  <SCORE>
-4.0718

>  <SCORE.INTER>
-1.14756

>  <SCORE.INTER.CONST>
1

>  <SCORE.INTER.POLAR>
0

>  <SCORE.INTER.ROT>
3

>  <SCORE.INTER.SOLV>
15.7777

>  <SCORE.INTER.VDW>
-11.6243

>  <SCORE.INTER.norm>
-0.052162

>  <SCORE.INTRA>
-2.92424

>  <SCORE.INTRA.DIHEDRAL>
-6.87583

>  <SCORE.INTRA.DIHEDRAL.0>
7.18044

>  <SCORE.INTRA.POLAR>
0

>  <SCORE.INTRA.POLAR.0>
0

>  <SCORE.INTRA.REPUL>
0

>  <SCORE.INTRA.REPUL.0>
0

>  <SCORE.INTRA.SOLV>
1.37206

>  <SCORE.INTRA.SOLV.lig_0>
-72.0615

>  <SCORE.INTRA.VDW>
-0.172357

>  <SCORE.INTRA.VDW.0>
-1.54792

>  <SCORE.INTRA.norm>
-0.13292

>  <SCORE.RESTR>
0

>  <SCORE.RESTR.CAVITY>
0

>  <SCORE.RESTR.norm>
0

>  <SCORE.SYSTEM>
0

>  <SCORE.SYSTEM.CONST>
0

>  <SCORE.SYSTEM.DIHEDRAL>
0

>  <SCORE.SYSTEM.SOLV>
0

>  <SCORE.SYSTEM.norm>
0

>  <SCORE.heavy>
22

>  <SCORE.norm>
-0.185082

>  <RMSD>
30.280

$$$$
lig.pdb
 OpenBabel11021811523D
libRbt.so/2013.1/901 2013/11/27
 22 23  0  0  0  0  0  0  0  0999 V2000
    6.4464  -29.9245    8.8697 C   0  0  1  0  0  0  0  0  0  0  0  0
    4.4403  -28.9391    7.7503 C   0  0  1  0  0  0  0  0  0  0  0  0
    4.9396  -29.0899    6.1956 C   0  0  1  0  0  0  0  0  0  0  0  0
    4.0906  -28.0455    5.3104 C   0  0  2  0  0  0  0  0  0  0  0  0
    6.9468  -30.9045   10.0244 C   0  0  1  0  0  0  0  0  0  0  0  0
    6.5590  -30.3320   11.4433 C   0  0  2  0  0  0  0  0  0  0  0  0
    7.2951  -28.9167   11.6362 C   0  0  1  0  0  0  0  0  0  0  0  0
    6.7682  -27.8580   10.5288 C   0  0  1  0  0  0  0  0  0  0  0  0
    7.4202  -26.4525   10.6463 C   0  0  0  0  0  0  0  0  0  0  0  0
    2.5450  -28.4750    5.4037 C   0  0  1  0  0  0  0  0  0  0  0  0
    2.0951  -28.3290    6.9447 C   0  0  0  0  0  0  0  0  0  0  0  0
    2.9412  -29.3042    7.8693 C   0  0  2  0  0  0  0  0  0  0  0  0
    7.0016  -28.3248   12.9458 F   0  0  0  0  0  0  0  0  0  0  0  0
    6.2948  -32.2631    9.7265 N   0  0  0  0  0  0  0  0  0  0  0  0
    7.0019  -25.7053   11.7755 N   0  0  0  0  0  0  0  0  0  0  0  0
    1.6935  -27.5332    4.6103 N   0  0  0  0  0  0  0  0  0  0  0  0
    2.5545  -29.1702    9.2706 N   0  0  0  0  0  0  0  0  0  0  0  0
    5.1007  -29.8319    8.6186 O   0  0  0  0  0  0  0  0  0  0  0  0
    6.3867  -28.7177    6.1342 O   0  0  0  0  0  0  0  0  0  0  0  0
    4.5059  -28.1681    3.9921 O   0  0  0  0  0  0  0  0  0  0  0  0
    6.9558  -31.0883   12.2531 O   0  0  0  0  0  0  0  0  0  0  0  0
    7.0443  -28.5025    9.1192 O   0  0  0  0  0  0  0  0  0  0  0  0
  1  5  1  0  0  0  0
  1 18  1  1  0  0  0
  2 18  1  1  0  0  0
  2  3  1  0  0  0  0
  2 12  1  0  0  0  0
  3 19  1  1  0  0  0
  3  4  1  0  0  0  0
  4 20  1  6  0  0  0
  4 10  1  0  0  0  0
  5  6  1  0  0  0  0
  5 14  1  6  0  0  0
  6 21  1  1  0  0  0
  7 13  1  1  0  0  0
  7  6  1  0  0  0  0
  8  9  1  6  0  0  0
  8  7  1  0  0  0  0
 10 16  1  6  0  0  0
 11 10  1  0  0  0  0
 12 17  1  1  0  0  0
 12 11  1  0  0  0  0
 15  9  1  0  0  0  0
 22  8  1  0  0  0  0
 22  1  1  0  0  0  0
M  END
>  <CHROM.1>
172.93593911,59.75653425,-71.05246150,5.36845608,-28.89674490,8.73752669
0.23432618,1.00458162,2.97487051

>  <Name>
lig.pdb

>  <RI>
0

>  <Rbt.Current_Directory>
/home/itssahil/PROJECTS/Mol_Feturizer/New_Systems/rnas/5bxk

>  <Rbt.Executable>
rbdock ($Id: //depot/dev/client3/rdock/2013.1/src/exe/rbdock.cxx#4 $)

>  <Rbt.Library>
libRbt.so (2013.1, Build901 2013/11/27)

>  <Rbt.Parameter_File>
/export/apps/rDock/src/rDock_2013.1_src/data/scripts/dock_solv.prm

>  <Rbt.Receptor>
prm/blind_docking_100.prm

>  <SCORE>
-4.50791

>  <SCORE.INTER>
-0.864581

>  <SCORE.INTER.CONST>
1

>  <SCORE.INTER.POLAR>
0

>  <SCORE.INTER.ROT>
3

>  <SCORE.INTER.SOLV>
11.1292

>  <SCORE.INTER.VDW>
-9.88612

>  <SCORE.INTER.norm>
-0.0392991

>  <SCORE.INTRA>
-3.64333

>  <SCORE.INTRA.DIHEDRAL>
-6.38281

>  <SCORE.INTRA.DIHEDRAL.0>
7.18044

>  <SCORE.INTRA.POLAR>
0

>  <SCORE.INTRA.POLAR.0>
0

>  <SCORE.INTRA.REPUL>
0

>  <SCORE.INTRA.REPUL.0>
0

>  <SCORE.INTRA.SOLV>
-1.02133

>  <SCORE.INTRA.SOLV.lig_0>
-72.0615

>  <SCORE.INTRA.VDW>
0.0587438

>  <SCORE.INTRA.VDW.0>
-1.54792

>  <SCORE.INTRA.norm>
-0.165606

>  <SCORE.RESTR>
0

>  <SCORE.RESTR.CAVITY>
0

>  <SCORE.RESTR.norm>
0

>  <SCORE.SYSTEM>
0

>  <SCORE.SYSTEM.CONST>
0

>  <SCORE.SYSTEM.DIHEDRAL>
0

>  <SCORE.SYSTEM.SOLV>
0

>  <SCORE.SYSTEM.norm>
0

>  <SCORE.heavy>
22

>  <SCORE.norm>
-0.204905

>  <RMSD>
30.436

$$$$
lig.pdb
 OpenBabel11021811523D
libRbt.so/2013.1/901 2013/11/27
 22 23  0  0  0  0  0  0  0  0999 V2000
    4.9135  -32.0053    9.0995 C   0  0  1  0  0  0  0  0  0  0  0  0
    6.9156  -30.6497    9.7338 C   0  0  1  0  0  0  0  0  0  0  0  0
    6.3608  -29.1139    9.5825 C   0  0  1  0  0  0  0  0  0  0  0  0
    7.2333  -28.1843   10.5672 C   0  0  2  0  0  0  0  0  0  0  0  0
    4.3188  -33.0531    8.0543 C   0  0  1  0  0  0  0  0  0  0  0  0
    4.0695  -32.3613    6.6576 C   0  0  2  0  0  0  0  0  0  0  0  0
    2.9886  -31.1894    6.8593 C   0  0  1  0  0  0  0  0  0  0  0  0
    3.5728  -30.0575    7.8605 C   0  0  1  0  0  0  0  0  0  0  0  0
    2.5956  -28.8747    8.1064 C   0  0  0  0  0  0  0  0  0  0  0  0
    6.9678  -28.6869   12.0702 C   0  0  1  0  0  0  0  0  0  0  0  0
    7.5106  -30.2010   12.1763 C   0  0  0  0  0  0  0  0  0  0  0  0
    6.7146  -31.1515   11.1838 C   0  0  2  0  0  0  0  0  0  0  0  0
    2.6842  -30.5069    5.5971 F   0  0  0  0  0  0  0  0  0  0  0  0
    5.3433  -34.1955    7.9840 N   0  0  0  0  0  0  0  0  0  0  0  0
    3.0840  -27.8871    8.9977 N   0  0  0  0  0  0  0  0  0  0  0  0
    7.7628  -27.8702   13.0409 N   0  0  0  0  0  0  0  0  0  0  0  0
    7.2076  -32.5236   11.2584 N   0  0  0  0  0  0  0  0  0  0  0  0
    6.2015  -31.5632    8.9320 O   0  0  0  0  0  0  0  0  0  0  0  0
    6.5865  -28.6753    8.1707 O   0  0  0  0  0  0  0  0  0  0  0  0
    6.7686  -26.8823   10.4466 O   0  0  0  0  0  0  0  0  0  0  0  0
    3.6275  -33.1748    5.9310 O   0  0  0  0  0  0  0  0  0  0  0  0
    3.9386  -30.7886    9.2059 O   0  0  0  0  0  0  0  0  0  0  0  0
  1  5  1  0  0  0  0
  1 18  1  6  0  0  0
  2 18  1  6  0  0  0
  2  3  1  0  0  0  0
  2 12  1  0  0  0  0
  3 19  1  6  0  0  0
  3  4  1  0  0  0  0
  4 20  1  1  0  0  0
  4 10  1  0  0  0  0
  5  6  1  0  0  0  0
  5 14  1  6  0  0  0
  6 21  1  6  0  0  0
  7 13  1  6  0  0  0
  7  6  1  0  0  0  0
  8  9  1  1  0  0  0
  8  7  1  0  0  0  0
 10 16  1  1  0  0  0
 11 10  1  0  0  0  0
 12 17  1  6  0  0  0
 12 11  1  0  0  0  0
 15  9  1  0  0  0  0
 22  8  1  0  0  0  0
 22  1  1  0  0  0  0
M  END
>  <CHROM.1>
-179.85230927,-70.74970452,179.01122167,5.29318170,-30.42362373,9.08313504
-2.49269014,-0.80690027,0.23325204

>  <Name>
lig.pdb

>  <RI>
0

>  <Rbt.Current_Directory>
/home/itssahil/PROJECTS/Mol_Feturizer/New_Systems/rnas/5bxk

>  <Rbt.Executable>
rbdock ($Id: //depot/dev/client3/rdock/2013.1/src/exe/rbdock.cxx#4 $)

>  <Rbt.Library>
libRbt.so (2013.1, Build901 2013/11/27)

>  <Rbt.Parameter_File>
/export/apps/rDock/src/rDock_2013.1_src/data/scripts/dock_solv.prm

>  <Rbt.Receptor>
prm/blind_docking_100.prm

>  <SCORE>
-3.86583

>  <SCORE.INTER>
-1.14068

>  <SCORE.INTER.CONST>
1

>  <SCORE.INTER.POLAR>
0

>  <SCORE.INTER.ROT>
3

>  <SCORE.INTER.SOLV>
9.48755

>  <SCORE.INTER.VDW>
-9.52297

>  <SCORE.INTER.norm>
-0.0518492

>  <SCORE.INTRA>
-2.72515

>  <SCORE.INTRA.DIHEDRAL>
-6.48624

>  <SCORE.INTRA.DIHEDRAL.0>
7.18044

>  <SCORE.INTRA.POLAR>
0

>  <SCORE.INTRA.POLAR.0>
0

>  <SCORE.INTRA.REPUL>
0

>  <SCORE.INTRA.REPUL.0>
0

>  <SCORE.INTRA.SOLV>
1.13669

>  <SCORE.INTRA.SOLV.lig_0>
-72.0615

>  <SCORE.INTRA.VDW>
-0.0503691

>  <SCORE.INTRA.VDW.0>
-1.54792

>  <SCORE.INTRA.norm>
-0.12387

>  <SCORE.RESTR>
0

>  <SCORE.RESTR.CAVITY>
0

>  <SCORE.RESTR.norm>
0

>  <SCORE.SYSTEM>
0

>  <SCORE.SYSTEM.CONST>
0

>  <SCORE.SYSTEM.DIHEDRAL>
0

>  <SCORE.SYSTEM.SOLV>
0

>  <SCORE.SYSTEM.norm>
0

>  <SCORE.heavy>
22

>  <SCORE.norm>
-0.175719

>  <RMSD>
30.745

$$$$
lig.pdb
 OpenBabel11021811523D
libRbt.so/2013.1/901 2013/11/27
 22 23  0  0  0  0  0  0  0  0999 V2000
    2.7881  -28.7785    8.0979 C   0  0  1  0  0  0  0  0  0  0  0  0
    4.1261  -30.8826    7.9217 C   0  0  1  0  0  0  0  0  0  0  0  0
    3.3650  -31.6985    6.7200 C   0  0  1  0  0  0  0  0  0  0  0  0
    3.6917  -33.2639    6.9146 C   0  0  2  0  0  0  0  0  0  0  0  0
    2.7853  -27.2044    7.8410 C   0  0  1  0  0  0  0  0  0  0  0  0
    3.6802  -26.4669    8.9118 C   0  0  2  0  0  0  0  0  0  0  0  0
    3.0532  -26.7361   10.3667 C   0  0  1  0  0  0  0  0  0  0  0  0
    3.0974  -28.3190   10.7093 C   0  0  1  0  0  0  0  0  0  0  0  0
    2.5192  -28.6732   12.1074 C   0  0  0  0  0  0  0  0  0  0  0  0
    5.2786  -33.4526    6.7466 C   0  0  1  0  0  0  0  0  0  0  0  0
    5.9917  -32.6263    7.9329 C   0  0  0  0  0  0  0  0  0  0  0  0
    5.6575  -31.0782    7.8157 C   0  0  2  0  0  0  0  0  0  0  0  0
    3.8187  -26.0637   11.4219 F   0  0  0  0  0  0  0  0  0  0  0  0
    3.2934  -27.0181    6.4033 N   0  0  0  0  0  0  0  0  0  0  0  0
    3.2688  -28.1647   13.1972 N   0  0  0  0  0  0  0  0  0  0  0  0
    5.6549  -34.8900    6.9298 N   0  0  0  0  0  0  0  0  0  0  0  0
    6.2846  -30.3201    8.8942 N   0  0  0  0  0  0  0  0  0  0  0  0
    3.9321  -29.4890    7.8353 O   0  0  0  0  0  0  0  0  0  0  0  0
    1.8928  -31.4849    6.8733 O   0  0  0  0  0  0  0  0  0  0  0  0
    3.0525  -33.9618    5.8998 O   0  0  0  0  0  0  0  0  0  0  0  0
    3.6371  -25.3140    8.6790 O   0  0  0  0  0  0  0  0  0  0  0  0
    2.3103  -29.0528    9.5603 O   0  0  0  0  0  0  0  0  0  0  0  0
  1  5  1  0  0  0  0
  1 18  1  1  0  0  0
  2 18  1  6  0  0  0
  2  3  1  0  0  0  0
  2 12  1  0  0  0  0
  3 19  1  1  0  0  0
  3  4  1  0  0  0  0
  4 20  1  6  0  0  0
  4 10  1  0  0  0  0
  5  6  1  0  0  0  0
  5 14  1  6  0  0  0
  6 21  1  6  0  0  0
  7 13  1  1  0  0  0
  7  6  1  0  0  0  0
  8  9  1  1  0  0  0
  8  7  1  0  0  0  0
 10 16  1  1  0  0  0
 11 10  1  0  0  0  0
 12 17  1  1  0  0  0
 12 11  1  0  0  0  0
 15  9  1  0  0  0  0
 22  8  1  0  0  0  0
 22  1  1  0  0  0  0
M  END
>  <CHROM.1>
-176.24600285,72.03694873,-65.91808518,3.75648567,-29.71334750,8.56769535
2.10712324,-1.24729947,1.02062946

>  <Name>
lig.pdb

>  <RI>
0

>  <Rbt.Current_Directory>
/home/itssahil/PROJECTS/Mol_Feturizer/New_Systems/rnas/5bxk

>  <Rbt.Executable>
rbdock ($Id: //depot/dev/client3/rdock/2013.1/src/exe/rbdock.cxx#4 $)

>  <Rbt.Library>
libRbt.so (2013.1, Build901 2013/11/27)

>  <Rbt.Parameter_File>
/export/apps/rDock/src/rDock_2013.1_src/data/scripts/dock_solv.prm

>  <Rbt.Receptor>
prm/blind_docking_80.prm

>  <SCORE>
-4.55462

>  <SCORE.INTER>
-1.15589

>  <SCORE.INTER.CONST>
1

>  <SCORE.INTER.POLAR>
0

>  <SCORE.INTER.ROT>
3

>  <SCORE.INTER.SOLV>
11.4151

>  <SCORE.INTER.VDW>
-10.1756

>  <SCORE.INTER.norm>
-0.0525403

>  <SCORE.INTRA>
-3.39874

>  <SCORE.INTRA.DIHEDRAL>
-6.16218

>  <SCORE.INTRA.DIHEDRAL.0>
7.18044

>  <SCORE.INTRA.POLAR>
0

>  <SCORE.INTRA.POLAR.0>
0

>  <SCORE.INTRA.REPUL>
0

>  <SCORE.INTRA.REPUL.0>
0

>  <SCORE.INTRA.SOLV>
-0.690208

>  <SCORE.INTRA.SOLV.lig_0>
-72.0615

>  <SCORE.INTRA.VDW>
0.0274574

>  <SCORE.INTRA.VDW.0>
-1.54792

>  <SCORE.INTRA.norm>
-0.154488

>  <SCORE.RESTR>
0

>  <SCORE.RESTR.CAVITY>
0

>  <SCORE.RESTR.norm>
0

>  <SCORE.SYSTEM>
0

>  <SCORE.SYSTEM.CONST>
0

>  <SCORE.SYSTEM.DIHEDRAL>
0

>  <SCORE.SYSTEM.SOLV>
0

>  <SCORE.SYSTEM.norm>
0

>  <SCORE.heavy>
22

>  <SCORE.norm>
-0.207028

>  <RMSD>
31.754

$$$$
lig.pdb
 OpenBabel11021811523D
libRbt.so/2013.1/901 2013/11/27
 22 23  0  0  0  0  0  0  0  0999 V2000
    5.4746  -30.1333    8.6494 C   0  0  1  0  0  0  0  0  0  0  0  0
    4.8176  -30.1550    6.2377 C   0  0  1  0  0  0  0  0  0  0  0  0
    6.2741  -30.1031    5.4858 C   0  0  1  0  0  0  0  0  0  0  0  0
    6.0366  -29.5015    4.0104 C   0  0  2  0  0  0  0  0  0  0  0  0
    5.6124  -31.0152    9.9713 C   0  0  1  0  0  0  0  0  0  0  0  0
    4.1969  -31.2545   10.6273 C   0  0  2  0  0  0  0  0  0  0  0  0
    3.5832  -29.8280   11.0408 C   0  0  1  0  0  0  0  0  0  0  0  0
    3.3552  -28.9151    9.7220 C   0  0  1  0  0  0  0  0  0  0  0  0
    2.7519  -27.5158   10.0259 C   0  0  0  0  0  0  0  0  0  0  0  0
    5.0796  -30.5214    3.2192 C   0  0  1  0  0  0  0  0  0  0  0  0
    3.6665  -30.5579    3.9940 C   0  0  0  0  0  0  0  0  0  0  0  0
    3.8548  -31.0970    5.4759 C   0  0  2  0  0  0  0  0  0  0  0  0
    2.2702  -29.9653   11.6801 F   0  0  0  0  0  0  0  0  0  0  0  0
    6.2980  -32.3175    9.5313 N   0  0  0  0  0  0  0  0  0  0  0  0
    3.5484  -26.7061   10.8733 N   0  0  0  0  0  0  0  0  0  0  0  0
    4.8058  -30.0139    1.8376 N   0  0  0  0  0  0  0  0  0  0  0  0
    2.5841  -31.1197    6.1943 N   0  0  0  0  0  0  0  0  0  0  0  0
    4.8997  -30.6949    7.5373 O   0  0  0  0  0  0  0  0  0  0  0  0
    7.1606  -29.1754    6.2538 O   0  0  0  0  0  0  0  0  0  0  0  0
    7.2648  -29.4560    3.3663 O   0  0  0  0  0  0  0  0  0  0  0  0
    4.3584  -31.9021   11.5968 O   0  0  0  0  0  0  0  0  0  0  0  0
    4.7530  -28.7944    9.0079 O   0  0  0  0  0  0  0  0  0  0  0  0
  1  5  1  0  0  0  0
  1 18  1  6  0  0  0
  2 18  1  1  0  0  0
  2  3  1  0  0  0  0
  2 12  1  0  0  0  0
  3 19  1  1  0  0  0
  3  4  1  0  0  0  0
  4 20  1  6  0  0  0
  4 10  1  0  0  0  0
  5  6  1  0  0  0  0
  5 14  1  6  0  0  0
  6 21  1  1  0  0  0
  7 13  1  6  0  0  0
  7  6  1  0  0  0  0
  8  9  1  1  0  0  0
  8  7  1  0  0  0  0
 10 16  1  6  0  0  0
 11 10  1  0  0  0  0
 12 17  1  1  0  0  0
 12 11  1  0  0  0  0
 15  9  1  0  0  0  0
 22  8  1  0  0  0  0
 22  1  1  0  0  0  0
M  END
>  <CHROM.1>
-172.17138582,70.00719202,60.49544578,4.65476933,-30.02473807,7.62981343
-1.96699207,0.88163684,-1.29713457

>  <Name>
lig.pdb

>  <RI>
0

>  <Rbt.Current_Directory>
/home/itssahil/PROJECTS/Mol_Feturizer/New_Systems/rnas/5bxk

>  <Rbt.Executable>
rbdock ($Id: //depot/dev/client3/rdock/2013.1/src/exe/rbdock.cxx#4 $)

>  <Rbt.Library>
libRbt.so (2013.1, Build901 2013/11/27)

>  <Rbt.Parameter_File>
/export/apps/rDock/src/rDock_2013.1_src/data/scripts/dock_solv.prm

>  <Rbt.Receptor>
prm/blind_docking_80.prm

>  <SCORE>
-3.14249

>  <SCORE.INTER>
0.311988

>  <SCORE.INTER.CONST>
1

>  <SCORE.INTER.POLAR>
0

>  <SCORE.INTER.ROT>
3

>  <SCORE.INTER.SOLV>
11.1168

>  <SCORE.INTER.VDW>
-9.09762

>  <SCORE.INTER.norm>
0.0141813

>  <SCORE.INTRA>
-3.45448

>  <SCORE.INTRA.DIHEDRAL>
-6.27395

>  <SCORE.INTRA.DIHEDRAL.0>
7.18044

>  <SCORE.INTRA.POLAR>
0

>  <SCORE.INTRA.POLAR.0>
0

>  <SCORE.INTRA.REPUL>
0

>  <SCORE.INTRA.REPUL.0>
0

>  <SCORE.INTRA.SOLV>
-0.556329

>  <SCORE.INTRA.SOLV.lig_0>
-72.0615

>  <SCORE.INTRA.VDW>
-0.0393366

>  <SCORE.INTRA.VDW.0>
-1.54792

>  <SCORE.INTRA.norm>
-0.157022

>  <SCORE.RESTR>
0

>  <SCORE.RESTR.CAVITY>
0

>  <SCORE.RESTR.norm>
0

>  <SCORE.SYSTEM>
0

>  <SCORE.SYSTEM.CONST>
0

>  <SCORE.SYSTEM.DIHEDRAL>
0

>  <SCORE.SYSTEM.SOLV>
0

>  <SCORE.SYSTEM.norm>
0

>  <SCORE.heavy>
22

>  <SCORE.norm>
-0.14284

>  <RMSD>
32.058

$$$$
lig.pdb
 OpenBabel11021811523D
libRbt.so/2013.1/901 2013/11/27
 22 23  0  0  0  0  0  0  0  0999 V2000
    2.4539  -29.1381    7.8915 C   0  0  1  0  0  0  0  0  0  0  0  0
    3.8733  -31.1464    7.4443 C   0  0  1  0  0  0  0  0  0  0  0  0
    3.0632  -31.8888    6.2271 C   0  0  1  0  0  0  0  0  0  0  0  0
    3.4724  -33.4466    6.2518 C   0  0  2  0  0  0  0  0  0  0  0  0
    2.3240  -27.5618    7.6850 C   0  0  1  0  0  0  0  0  0  0  0  0
    3.2661  -26.7921    8.6906 C   0  0  2  0  0  0  0  0  0  0  0  0
    2.7986  -27.1393   10.1884 C   0  0  1  0  0  0  0  0  0  0  0  0
    2.9783  -28.7236   10.4760 C   0  0  1  0  0  0  0  0  0  0  0  0
    2.5593  -29.1509   11.9100 C   0  0  0  0  0  0  0  0  0  0  0  0
    5.0496  -33.5383    5.9579 C   0  0  1  0  0  0  0  0  0  0  0  0
    5.8103  -32.7868    7.1641 C   0  0  0  0  0  0  0  0  0  0  0  0
    5.4001  -31.2535    7.2152 C   0  0  2  0  0  0  0  0  0  0  0  0
    3.6150  -26.4429   11.1884 F   0  0  0  0  0  0  0  0  0  0  0  0
    2.6805  -27.3058    6.2129 N   0  0  0  0  0  0  0  0  0  0  0  0
    3.3333  -28.5685   12.9443 N   0  0  0  0  0  0  0  0  0  0  0  0
    5.5017  -34.9654    5.9798 N   0  0  0  0  0  0  0  0  0  0  0  0
    6.0702  -30.5645    8.3140 N   0  0  0  0  0  0  0  0  0  0  0  0
    3.6119  -29.7624    7.5019 O   0  0  0  0  0  0  0  0  0  0  0  0
    1.5982  -31.7650    6.5007 O   0  0  0  0  0  0  0  0  0  0  0  0
    2.7922  -34.0821    5.2228 O   0  0  0  0  0  0  0  0  0  0  0  0
    3.1260  -25.6393    8.4987 O   0  0  0  0  0  0  0  0  0  0  0  0
    2.1356  -29.4804    9.3826 O   0  0  0  0  0  0  0  0  0  0  0  0
  1  5  1  0  0  0  0
  1 18  1  1  0  0  0
  2 18  1  6  0  0  0
  2  3  1  0  0  0  0
  2 12  1  0  0  0  0
  3 19  1  1  0  0  0
  3  4  1  0  0  0  0
  4 20  1  6  0  0  0
  4 10  1  0  0  0  0
  5  6  1  0  0  0  0
  5 14  1  6  0  0  0
  6 21  1  6  0  0  0
  7 13  1  1  0  0  0
  7  6  1  0  0  0  0
  8  9  1  1  0  0  0
  8  7  1  0  0  0  0
 10 16  1  1  0  0  0
 11 10  1  0  0  0  0
 12 17  1  1  0  0  0
 12 11  1  0  0  0  0
 15  9  1  0  0  0  0
 22  8  1  0  0  0  0
 22  1  1  0  0  0  0
M  END
>  <CHROM.1>
-171.71961407,71.11388609,-63.00955864,3.49894333,-29.99719398,8.16614502
1.95667195,-1.12056447,0.94247864

>  <Name>
lig.pdb

>  <RI>
0

>  <Rbt.Current_Directory>
/home/itssahil/PROJECTS/Mol_Feturizer/New_Systems/rnas/5bxk

>  <Rbt.Executable>
rbdock ($Id: //depot/dev/client3/rdock/2013.1/src/exe/rbdock.cxx#4 $)

>  <Rbt.Library>
libRbt.so (2013.1, Build901 2013/11/27)

>  <Rbt.Parameter_File>
/export/apps/rDock/src/rDock_2013.1_src/data/scripts/dock_solv.prm

>  <Rbt.Receptor>
prm/blind_docking_100.prm

>  <SCORE>
-5.97735

>  <SCORE.INTER>
-2.63961

>  <SCORE.INTER.CONST>
1

>  <SCORE.INTER.POLAR>
0

>  <SCORE.INTER.ROT>
3

>  <SCORE.INTER.SOLV>
12.9953

>  <SCORE.INTER.VDW>
-11.6915

>  <SCORE.INTER.norm>
-0.119982

>  <SCORE.INTRA>
-3.33775

>  <SCORE.INTRA.DIHEDRAL>
-6.09977

>  <SCORE.INTRA.DIHEDRAL.0>
7.18044

>  <SCORE.INTRA.POLAR>
0

>  <SCORE.INTRA.POLAR.0>
0

>  <SCORE.INTRA.REPUL>
0

>  <SCORE.INTRA.REPUL.0>
0

>  <SCORE.INTRA.SOLV>
-0.657673

>  <SCORE.INTRA.SOLV.lig_0>
-72.0615

>  <SCORE.INTRA.VDW>
0.0409723

>  <SCORE.INTRA.VDW.0>
-1.54792

>  <SCORE.INTRA.norm>
-0.151716

>  <SCORE.RESTR>
0

>  <SCORE.RESTR.CAVITY>
0

>  <SCORE.RESTR.norm>
0

>  <SCORE.SYSTEM>
0

>  <SCORE.SYSTEM.CONST>
0

>  <SCORE.SYSTEM.DIHEDRAL>
0

>  <SCORE.SYSTEM.SOLV>
0

>  <SCORE.SYSTEM.norm>
0

>  <SCORE.heavy>
22

>  <SCORE.norm>
-0.271698

>  <RMSD>
32.287

$$$$
lig.pdb
 OpenBabel11021811523D
libRbt.so/2013.1/901 2013/11/27
 22 23  0  0  0  0  0  0  0  0999 V2000
   11.0218  -16.6396   -3.9620 C   0  0  1  0  0  0  0  0  0  0  0  0
   12.8368  -17.5532   -2.5062 C   0  0  1  0  0  0  0  0  0  0  0  0
   12.5930  -19.1454   -2.8138 C   0  0  1  0  0  0  0  0  0  0  0  0
   13.9725  -19.9162   -2.5008 C   0  0  2  0  0  0  0  0  0  0  0  0
    9.8448  -15.5679   -4.0638 C   0  0  1  0  0  0  0  0  0  0  0  0
    8.5944  -16.0370   -3.2226 C   0  0  2  0  0  0  0  0  0  0  0  0
    8.0619  -17.4228   -3.8378 C   0  0  1  0  0  0  0  0  0  0  0  0
    9.1972  -18.5698   -3.6944 C   0  0  1  0  0  0  0  0  0  0  0  0
    8.7641  -19.9527   -4.2552 C   0  0  0  0  0  0  0  0  0  0  0  0
   15.0831  -19.3547   -3.5174 C   0  0  1  0  0  0  0  0  0  0  0  0
   15.2843  -17.7880   -3.1960 C   0  0  0  0  0  0  0  0  0  0  0  0
   13.9339  -16.9889   -3.4404 C   0  0  2  0  0  0  0  0  0  0  0  0
    6.8817  -17.9182   -3.1214 F   0  0  0  0  0  0  0  0  0  0  0  0
   10.4439  -14.2453   -3.5622 N   0  0  0  0  0  0  0  0  0  0  0  0
    9.7433  -20.9692   -4.1274 N   0  0  0  0  0  0  0  0  0  0  0  0
   16.4003  -20.0225   -3.2711 N   0  0  0  0  0  0  0  0  0  0  0  0
   14.0982  -15.5703   -3.1373 N   0  0  0  0  0  0  0  0  0  0  0  0
   11.6953  -16.7705   -2.7738 O   0  0  0  0  0  0  0  0  0  0  0  0
   11.5345  -19.6420   -1.8815 O   0  0  0  0  0  0  0  0  0  0  0  0
   13.7753  -21.2649   -2.7607 O   0  0  0  0  0  0  0  0  0  0  0  0
    7.7590  -15.2159   -3.3381 O   0  0  0  0  0  0  0  0  0  0  0  0
   10.4812  -18.0298   -4.4279 O   0  0  0  0  0  0  0  0  0  0  0  0
  1  5  1  0  0  0  0
  1 18  1  1  0  0  0
  2 18  1  6  0  0  0
  2  3  1  0  0  0  0
  2 12  1  0  0  0  0
  3 19  1  1  0  0  0
  3  4  1  0  0  0  0
  4 20  1  6  0  0  0
  4 10  1  0  0  0  0
  5  6  1  0  0  0  0
  5 14  1  1  0  0  0
  6 21  1  6  0  0  0
  7 13  1  1  0  0  0
  7  6  1  0  0  0  0
  8  9  1  6  0  0  0
  8  7  1  0  0  0  0
 10 16  1  1  0  0  0
 11 10  1  0  0  0  0
 12 17  1  1  0  0  0
 12 11  1  0  0  0  0
 15  9  1  0  0  0  0
 22  8  1  0  0  0  0
 22  1  1  0  0  0  0
M  END
>  <CHROM.1>
-173.38817712,-58.70543823,-179.53672984,11.36701388,-17.95025412,-3.32336065
-2.78623876,0.08213381,3.12222959

>  <Name>
lig.pdb

>  <RI>
0

>  <Rbt.Current_Directory>
/home/itssahil/PROJECTS/Mol_Feturizer/New_Systems/rnas/5bxk

>  <Rbt.Executable>
rbdock ($Id: //depot/dev/client3/rdock/2013.1/src/exe/rbdock.cxx#4 $)

>  <Rbt.Library>
libRbt.so (2013.1, Build901 2013/11/27)

>  <Rbt.Parameter_File>
/export/apps/rDock/src/rDock_2013.1_src/data/scripts/dock_solv.prm

>  <Rbt.Receptor>
prm/blind_docking_40.prm

>  <SCORE>
-6.46881

>  <SCORE.INTER>
-3.58187

>  <SCORE.INTER.CONST>
1

>  <SCORE.INTER.POLAR>
0

>  <SCORE.INTER.ROT>
3

>  <SCORE.INTER.SOLV>
13.5436

>  <SCORE.INTER.VDW>
-12.5025

>  <SCORE.INTER.norm>
-0.162812

>  <SCORE.INTRA>
-2.88694

>  <SCORE.INTRA.DIHEDRAL>
-6.83027

>  <SCORE.INTRA.DIHEDRAL.0>
7.18044

>  <SCORE.INTRA.POLAR>
0

>  <SCORE.INTRA.POLAR.0>
0

>  <SCORE.INTRA.REPUL>
0

>  <SCORE.INTRA.REPUL.0>
0

>  <SCORE.INTRA.SOLV>
1.53556

>  <SCORE.INTRA.SOLV.lig_0>
-72.0615

>  <SCORE.INTRA.VDW>
-0.239585

>  <SCORE.INTRA.VDW.0>
-1.54792

>  <SCORE.INTRA.norm>
-0.131224

>  <SCORE.RESTR>
0

>  <SCORE.RESTR.CAVITY>
0

>  <SCORE.RESTR.norm>
0

>  <SCORE.SYSTEM>
0

>  <SCORE.SYSTEM.CONST>
0

>  <SCORE.SYSTEM.DIHEDRAL>
0

>  <SCORE.SYSTEM.SOLV>
0

>  <SCORE.SYSTEM.norm>
0

>  <SCORE.heavy>
22

>  <SCORE.norm>
-0.294037

>  <RMSD>
32.288

$$$$
lig.pdb
 OpenBabel11021811523D
libRbt.so/2013.1/901 2013/11/27
 22 23  0  0  0  0  0  0  0  0999 V2000
   12.6336  -17.7225   -3.4965 C   0  0  1  0  0  0  0  0  0  0  0  0
   10.5915  -16.2834   -3.5816 C   0  0  1  0  0  0  0  0  0  0  0  0
   11.2500  -14.7994   -3.8125 C   0  0  1  0  0  0  0  0  0  0  0  0
   10.1822  -13.7096   -3.2957 C   0  0  2  0  0  0  0  0  0  0  0  0
   13.5198  -18.7728   -4.3062 C   0  0  1  0  0  0  0  0  0  0  0  0
   12.8495  -20.2015   -4.2773 C   0  0  2  0  0  0  0  0  0  0  0  0
   12.7676  -20.6910   -2.7489 C   0  0  1  0  0  0  0  0  0  0  0  0
   11.8174  -19.6954   -1.8942 C   0  0  1  0  0  0  0  0  0  0  0  0
   11.6703  -20.0991   -0.4009 C   0  0  0  0  0  0  0  0  0  0  0  0
    8.8697  -13.8439   -4.2130 C   0  0  1  0  0  0  0  0  0  0  0  0
    8.2603  -15.3166   -3.9719 C   0  0  0  0  0  0  0  0  0  0  0  0
    9.2986  -16.4319   -4.4191 C   0  0  2  0  0  0  0  0  0  0  0  0
   12.1727  -22.0271   -2.6367 F   0  0  0  0  0  0  0  0  0  0  0  0
   13.6494  -18.1991   -5.7253 N   0  0  0  0  0  0  0  0  0  0  0  0
   10.9424  -21.2959   -0.1867 N   0  0  0  0  0  0  0  0  0  0  0  0
    7.8259  -12.8636   -3.7761 N   0  0  0  0  0  0  0  0  0  0  0  0
    8.7650  -17.7714   -4.1907 N   0  0  0  0  0  0  0  0  0  0  0  0
   11.4330  -17.3230   -4.0271 O   0  0  0  0  0  0  0  0  0  0  0  0
   12.4866  -14.7048   -2.9769 O   0  0  0  0  0  0  0  0  0  0  0  0
   10.7313  -12.4501   -3.4895 O   0  0  0  0  0  0  0  0  0  0  0  0
   13.5453  -20.9337   -4.8816 O   0  0  0  0  0  0  0  0  0  0  0  0
   12.4270  -18.2514   -2.0407 O   0  0  0  0  0  0  0  0  0  0  0  0
  1  5  1  0  0  0  0
  1 18  1  6  0  0  0
  2 18  1  6  0  0  0
  2  3  1  0  0  0  0
  2 12  1  0  0  0  0
  3 19  1  1  0  0  0
  3  4  1  0  0  0  0
  4 20  1  6  0  0  0
  4 10  1  0  0  0  0
  5  6  1  0  0  0  0
  5 14  1  6  0  0  0
  6 21  1  6  0  0  0
  7 13  1  6  0  0  0
  7  6  1  0  0  0  0
  8  9  1  1  0  0  0
  8  7  1  0  0  0  0
 10 16  1  1  0  0  0
 11 10  1  0  0  0  0
 12 17  1  1  0  0  0
 12 11  1  0  0  0  0
 15  9  1  0  0  0  0
 22  8  1  0  0  0  0
 22  1  1  0  0  0  0
M  END
>  <CHROM.1>
-170.43954516,68.32282838,-68.57106671,11.29677480,-17.48461080,-3.36370796
-1.07706873,0.59974256,-0.44573992

>  <Name>
lig.pdb

>  <RI>
0

>  <Rbt.Current_Directory>
/home/itssahil/PROJECTS/Mol_Feturizer/New_Systems/rnas/5bxk

>  <Rbt.Executable>
rbdock ($Id: //depot/dev/client3/rdock/2013.1/src/exe/rbdock.cxx#4 $)

>  <Rbt.Library>
libRbt.so (2013.1, Build901 2013/11/27)

>  <Rbt.Parameter_File>
/export/apps/rDock/src/rDock_2013.1_src/data/scripts/dock_solv.prm

>  <Rbt.Receptor>
prm/blind_docking_100.prm

>  <SCORE>
-6.23852

>  <SCORE.INTER>
-2.85726

>  <SCORE.INTER.CONST>
1

>  <SCORE.INTER.POLAR>
0

>  <SCORE.INTER.ROT>
3

>  <SCORE.INTER.SOLV>
26.9714

>  <SCORE.INTER.VDW>
-16.4953

>  <SCORE.INTER.norm>
-0.129876

>  <SCORE.INTRA>
-3.38125

>  <SCORE.INTRA.DIHEDRAL>
-6.02374

>  <SCORE.INTRA.DIHEDRAL.0>
7.18044

>  <SCORE.INTRA.POLAR>
0

>  <SCORE.INTRA.POLAR.0>
0

>  <SCORE.INTRA.REPUL>
0

>  <SCORE.INTRA.REPUL.0>
0

>  <SCORE.INTRA.SOLV>
-0.802686

>  <SCORE.INTRA.SOLV.lig_0>
-72.0615

>  <SCORE.INTRA.VDW>
0.0319591

>  <SCORE.INTRA.VDW.0>
-1.54792

>  <SCORE.INTRA.norm>
-0.153693

>  <SCORE.RESTR>
0

>  <SCORE.RESTR.CAVITY>
0

>  <SCORE.RESTR.norm>
0

>  <SCORE.SYSTEM>
0

>  <SCORE.SYSTEM.CONST>
0

>  <SCORE.SYSTEM.DIHEDRAL>
0

>  <SCORE.SYSTEM.SOLV>
0

>  <SCORE.SYSTEM.norm>
0

>  <SCORE.heavy>
22

>  <SCORE.norm>
-0.283569

>  <RMSD>
32.333

$$$$
lig.pdb
 OpenBabel11021811523D
libRbt.so/2013.1/901 2013/11/27
 22 23  0  0  0  0  0  0  0  0999 V2000
   13.0850  -17.4248   -3.0329 C   0  0  1  0  0  0  0  0  0  0  0  0
   11.1469  -16.9095   -4.5251 C   0  0  1  0  0  0  0  0  0  0  0  0
    9.9918  -17.7243   -3.6938 C   0  0  1  0  0  0  0  0  0  0  0  0
    8.5691  -17.0717   -4.0749 C   0  0  2  0  0  0  0  0  0  0  0  0
   14.6174  -17.8650   -2.9873 C   0  0  1  0  0  0  0  0  0  0  0  0
   14.7605  -19.4056   -3.2996 C   0  0  2  0  0  0  0  0  0  0  0  0
   13.9714  -20.2270   -2.1661 C   0  0  1  0  0  0  0  0  0  0  0  0
   12.3919  -19.8699   -2.2156 C   0  0  1  0  0  0  0  0  0  0  0  0
   11.5449  -20.6295   -1.1574 C   0  0  0  0  0  0  0  0  0  0  0  0
    8.5875  -15.5440   -3.5768 C   0  0  1  0  0  0  0  0  0  0  0  0
    9.7422  -14.7804   -4.4027 C   0  0  0  0  0  0  0  0  0  0  0  0
   11.1633  -15.4214   -4.1005 C   0  0  2  0  0  0  0  0  0  0  0  0
   14.0739  -21.6755   -2.3732 F   0  0  0  0  0  0  0  0  0  0  0  0
   15.3351  -16.9752   -4.0133 N   0  0  0  0  0  0  0  0  0  0  0  0
   10.1449  -20.4578   -1.2948 N   0  0  0  0  0  0  0  0  0  0  0  0
    7.2934  -14.8706   -3.9133 N   0  0  0  0  0  0  0  0  0  0  0  0
   12.2166  -14.7489   -4.8551 N   0  0  0  0  0  0  0  0  0  0  0  0
   12.4462  -17.3801   -4.2463 O   0  0  0  0  0  0  0  0  0  0  0  0
   10.0115  -19.1494   -4.1467 O   0  0  0  0  0  0  0  0  0  0  0  0
    7.5857  -17.7547   -3.3737 O   0  0  0  0  0  0  0  0  0  0  0  0
   15.9051  -19.6749   -3.2468 O   0  0  0  0  0  0  0  0  0  0  0  0
   12.2746  -18.3106   -2.0326 O   0  0  0  0  0  0  0  0  0  0  0  0
  1  5  1  0  0  0  0
  1 18  1  6  0  0  0
  2 18  1  1  0  0  0
  2  3  1  0  0  0  0
  2 12  1  0  0  0  0
  3 19  1  6  0  0  0
  3  4  1  0  0  0  0
  4 20  1  1  0  0  0
  4 10  1  0  0  0  0
  5  6  1  0  0  0  0
  5 14  1  6  0  0  0
  6 21  1  1  0  0  0
  7 13  1  6  0  0  0
  7  6  1  0  0  0  0
  8  9  1  1  0  0  0
  8  7  1  0  0  0  0
 10 16  1  6  0  0  0
 11 10  1  0  0  0  0
 12 17  1  6  0  0  0
 12 11  1  0  0  0  0
 15  9  1  0  0  0  0
 22  8  1  0  0  0  0
 22  1  1  0  0  0  0
M  END
>  <CHROM.1>
-173.82893767,-59.28020962,-172.49057863,11.70768312,-17.98576387,-3.29226997
-0.64278132,0.07834347,-0.43785980

>  <Name>
lig.pdb

>  <RI>
0

>  <Rbt.Current_Directory>
/home/itssahil/PROJECTS/Mol_Feturizer/New_Systems/rnas/5bxk

>  <Rbt.Executable>
rbdock ($Id: //depot/dev/client3/rdock/2013.1/src/exe/rbdock.cxx#4 $)

>  <Rbt.Library>
libRbt.so (2013.1, Build901 2013/11/27)

>  <Rbt.Parameter_File>
/export/apps/rDock/src/rDock_2013.1_src/data/scripts/dock_solv.prm

>  <Rbt.Receptor>
prm/blind_docking_40.prm

>  <SCORE>
-7.5118

>  <SCORE.INTER>
-4.67845

>  <SCORE.INTER.CONST>
1

>  <SCORE.INTER.POLAR>
0

>  <SCORE.INTER.ROT>
3

>  <SCORE.INTER.SOLV>
15.4476

>  <SCORE.INTER.VDW>
-13.8682

>  <SCORE.INTER.norm>
-0.212657

>  <SCORE.INTRA>
-2.83335

>  <SCORE.INTRA.DIHEDRAL>
-6.66022

>  <SCORE.INTRA.DIHEDRAL.0>
7.18044

>  <SCORE.INTRA.POLAR>
0

>  <SCORE.INTRA.POLAR.0>
0

>  <SCORE.INTRA.REPUL>
0

>  <SCORE.INTRA.REPUL.0>
0

>  <SCORE.INTRA.SOLV>
1.45818

>  <SCORE.INTRA.SOLV.lig_0>
-72.0615

>  <SCORE.INTRA.VDW>
-0.232329

>  <SCORE.INTRA.VDW.0>
-1.54792

>  <SCORE.INTRA.norm>
-0.128789

>  <SCORE.RESTR>
0

>  <SCORE.RESTR.CAVITY>
0

>  <SCORE.RESTR.norm>
0

>  <SCORE.SYSTEM>
0

>  <SCORE.SYSTEM.CONST>
0

>  <SCORE.SYSTEM.DIHEDRAL>
0

>  <SCORE.SYSTEM.SOLV>
0

>  <SCORE.SYSTEM.norm>
0

>  <SCORE.heavy>
22

>  <SCORE.norm>
-0.341445

>  <RMSD>
32.418

$$$$
lig.pdb
 OpenBabel11021811523D
libRbt.so/2013.1/901 2013/11/27
 22 23  0  0  0  0  0  0  0  0999 V2000
   10.8620  -17.2114   -4.0564 C   0  0  1  0  0  0  0  0  0  0  0  0
   12.5827  -18.1153   -2.4845 C   0  0  1  0  0  0  0  0  0  0  0  0
   12.1690  -19.6989   -2.5866 C   0  0  1  0  0  0  0  0  0  0  0  0
   13.4610  -20.5652   -2.1679 C   0  0  2  0  0  0  0  0  0  0  0  0
    9.8171  -16.0333   -4.3100 C   0  0  1  0  0  0  0  0  0  0  0  0
    8.5299  -16.2333   -3.4187 C   0  0  2  0  0  0  0  0  0  0  0  0
    7.8326  -17.6182   -3.8407 C   0  0  1  0  0  0  0  0  0  0  0  0
    8.8277  -18.8598   -3.5358 C   0  0  1  0  0  0  0  0  0  0  0  0
    8.2300  -20.2461   -3.9039 C   0  0  0  0  0  0  0  0  0  0  0  0
   14.6177  -20.2602   -3.2407 C   0  0  1  0  0  0  0  0  0  0  0  0
   14.9865  -18.6955   -3.1221 C   0  0  0  0  0  0  0  0  0  0  0  0
   13.7269  -17.7955   -3.4761 C   0  0  2  0  0  0  0  0  0  0  0  0
    6.6106  -17.8693   -3.0691 F   0  0  0  0  0  0  0  0  0  0  0  0
   10.5720  -14.7339   -3.9913 N   0  0  0  0  0  0  0  0  0  0  0  0
    9.0734  -21.3452   -3.6062 N   0  0  0  0  0  0  0  0  0  0  0  0
   15.8582  -21.0269   -2.9019 N   0  0  0  0  0  0  0  0  0  0  0  0
   14.0430  -16.3752   -3.3568 N   0  0  0  0  0  0  0  0  0  0  0  0
   11.5289  -17.2567   -2.8582 O   0  0  0  0  0  0  0  0  0  0  0  0
   11.0703  -19.9563   -1.6053 O   0  0  0  0  0  0  0  0  0  0  0  0
   13.1197  -21.9075   -2.2536 O   0  0  0  0  0  0  0  0  0  0  0  0
    7.7949  -15.3435   -3.6497 O   0  0  0  0  0  0  0  0  0  0  0  0
   10.1577  -18.5793   -4.3301 O   0  0  0  0  0  0  0  0  0  0  0  0
  1  5  1  0  0  0  0
  1 18  1  1  0  0  0
  2 18  1  6  0  0  0
  2  3  1  0  0  0  0
  2 12  1  0  0  0  0
  3 19  1  1  0  0  0
  3  4  1  0  0  0  0
  4 20  1  6  0  0  0
  4 10  1  0  0  0  0
  5  6  1  0  0  0  0
  5 14  1  1  0  0  0
  6 21  1  6  0  0  0
  7 13  1  1  0  0  0
  7  6  1  0  0  0  0
  8  9  1  6  0  0  0
  8  7  1  0  0  0  0
 10 16  1  1  0  0  0
 11 10  1  0  0  0  0
 12 17  1  1  0  0  0
 12 11  1  0  0  0  0
 15  9  1  0  0  0  0
 22  8  1  0  0  0  0
 22  1  1  0  0  0  0
M  END
>  <CHROM.1>
-172.73112809,-58.49073358,-178.22247725,11.06928012,-18.44480957,-3.24720101
-2.67740697,0.06764454,2.97849841

>  <Name>
lig.pdb

>  <RI>
0

>  <Rbt.Current_Directory>
/home/itssahil/PROJECTS/Mol_Feturizer/New_Systems/rnas/5bxk

>  <Rbt.Executable>
rbdock ($Id: //depot/dev/client3/rdock/2013.1/src/exe/rbdock.cxx#4 $)

>  <Rbt.Library>
libRbt.so (2013.1, Build901 2013/11/27)

>  <Rbt.Parameter_File>
/export/apps/rDock/src/rDock_2013.1_src/data/scripts/dock_solv.prm

>  <Rbt.Receptor>
prm/blind_docking_60.prm

>  <SCORE>
-6.52259

>  <SCORE.INTER>
-3.65215

>  <SCORE.INTER.CONST>
1

>  <SCORE.INTER.POLAR>
0

>  <SCORE.INTER.ROT>
3

>  <SCORE.INTER.SOLV>
11.9749

>  <SCORE.INTER.VDW>
-12.0264

>  <SCORE.INTER.norm>
-0.166007

>  <SCORE.INTRA>
-2.87044

>  <SCORE.INTRA.DIHEDRAL>
-6.77401

>  <SCORE.INTRA.DIHEDRAL.0>
7.18044

>  <SCORE.INTRA.POLAR>
0

>  <SCORE.INTRA.POLAR.0>
0

>  <SCORE.INTRA.REPUL>
0

>  <SCORE.INTRA.REPUL.0>
0

>  <SCORE.INTRA.SOLV>
1.52357

>  <SCORE.INTRA.SOLV.lig_0>
-72.0615

>  <SCORE.INTRA.VDW>
-0.245223

>  <SCORE.INTRA.VDW.0>
-1.54792

>  <SCORE.INTRA.norm>
-0.130475

>  <SCORE.RESTR>
0

>  <SCORE.RESTR.CAVITY>
0

>  <SCORE.RESTR.norm>
0

>  <SCORE.SYSTEM>
0

>  <SCORE.SYSTEM.CONST>
0

>  <SCORE.SYSTEM.DIHEDRAL>
0

>  <SCORE.SYSTEM.SOLV>
0

>  <SCORE.SYSTEM.norm>
0

>  <SCORE.heavy>
22

>  <SCORE.norm>
-0.296481

>  <RMSD>
32.449

$$$$
lig.pdb
 OpenBabel11021811523D
libRbt.so/2013.1/901 2013/11/27
 22 23  0  0  0  0  0  0  0  0999 V2000
   12.6429  -18.6686   -2.7601 C   0  0  1  0  0  0  0  0  0  0  0  0
   10.8010  -17.7267   -4.1632 C   0  0  1  0  0  0  0  0  0  0  0  0
    9.5113  -18.3550   -3.3686 C   0  0  1  0  0  0  0  0  0  0  0  0
    8.2453  -17.4067   -3.6734 C   0  0  2  0  0  0  0  0  0  0  0  0
   14.0363  -19.4444   -2.7811 C   0  0  1  0  0  0  0  0  0  0  0  0
   13.8140  -20.9734   -3.1041 C   0  0  2  0  0  0  0  0  0  0  0  0
   12.9062  -21.6094   -1.9406 C   0  0  1  0  0  0  0  0  0  0  0  0
   11.4480  -20.9037   -1.9218 C   0  0  1  0  0  0  0  0  0  0  0  0
   10.4947  -21.4656   -0.8308 C   0  0  0  0  0  0  0  0  0  0  0  0
    8.5709  -15.9540   -3.0686 C   0  0  1  0  0  0  0  0  0  0  0  0
    9.8499  -15.3761   -3.8614 C   0  0  0  0  0  0  0  0  0  0  0  0
   11.1163  -16.3070   -3.6344 C   0  0  2  0  0  0  0  0  0  0  0  0
   12.6695  -23.0408   -2.1565 F   0  0  0  0  0  0  0  0  0  0  0  0
   14.8944  -18.7270   -3.8340 N   0  0  0  0  0  0  0  0  0  0  0  0
    9.2117  -20.8644   -0.8082 N   0  0  0  0  0  0  0  0  0  0  0  0
    7.4352  -15.0142   -3.3299 N   0  0  0  0  0  0  0  0  0  0  0  0
   12.2782  -15.8032   -4.3607 N   0  0  0  0  0  0  0  0  0  0  0  0
   11.9818  -18.4651   -3.9451 O   0  0  0  0  0  0  0  0  0  0  0  0
    9.2438  -19.7184   -3.9219 O   0  0  0  0  0  0  0  0  0  0  0  0
    7.1494  -17.9307   -3.0026 O   0  0  0  0  0  0  0  0  0  0  0  0
   14.8690  -21.4952   -3.1010 O   0  0  0  0  0  0  0  0  0  0  0  0
   11.6944  -19.3608   -1.7290 O   0  0  0  0  0  0  0  0  0  0  0  0
  1  5  1  0  0  0  0
  1 18  1  6  0  0  0
  2 18  1  1  0  0  0
  2  3  1  0  0  0  0
  2 12  1  0  0  0  0
  3 19  1  6  0  0  0
  3  4  1  0  0  0  0
  4 20  1  1  0  0  0
  4 10  1  0  0  0  0
  5  6  1  0  0  0  0
  5 14  1  6  0  0  0
  6 21  1  1  0  0  0
  7 13  1  6  0  0  0
  7  6  1  0  0  0  0
  8  9  1  1  0  0  0
  8  7  1  0  0  0  0
 10 16  1  6  0  0  0
 11 10  1  0  0  0  0
 12 17  1  6  0  0  0
 12 11  1  0  0  0  0
 15  9  1  0  0  0  0
 22  8  1  0  0  0  0
 22  1  1  0  0  0  0
M  END
>  <CHROM.1>
-174.92171319,-62.88491930,-179.57535099,11.14441055,-18.93364439,-2.95816295
-0.81090433,0.19254079,-0.39422357

>  <Name>
lig.pdb

>  <RI>
0

>  <Rbt.Current_Directory>
/home/itssahil/PROJECTS/Mol_Feturizer/New_Systems/rnas/5bxk

>  <Rbt.Executable>
rbdock ($Id: //depot/dev/client3/rdock/2013.1/src/exe/rbdock.cxx#4 $)

>  <Rbt.Library>
libRbt.so (2013.1, Build901 2013/11/27)

>  <Rbt.Parameter_File>
/export/apps/rDock/src/rDock_2013.1_src/data/scripts/dock_solv.prm

>  <Rbt.Receptor>
prm/blind_docking_60.prm

>  <SCORE>
-7.22054

>  <SCORE.INTER>
-4.28727

>  <SCORE.INTER.CONST>
1

>  <SCORE.INTER.POLAR>
0

>  <SCORE.INTER.ROT>
3

>  <SCORE.INTER.SOLV>
13.2107

>  <SCORE.INTER.VDW>
-12.8618

>  <SCORE.INTER.norm>
-0.194876

>  <SCORE.INTRA>
-2.93328

>  <SCORE.INTRA.DIHEDRAL>
-6.88149

>  <SCORE.INTRA.DIHEDRAL.0>
7.18044

>  <SCORE.INTRA.POLAR>
0

>  <SCORE.INTRA.POLAR.0>
0

>  <SCORE.INTRA.REPUL>
0

>  <SCORE.INTRA.REPUL.0>
0

>  <SCORE.INTRA.SOLV>
1.40576

>  <SCORE.INTRA.SOLV.lig_0>
-72.0615

>  <SCORE.INTRA.VDW>
-0.195409

>  <SCORE.INTRA.VDW.0>
-1.54792

>  <SCORE.INTRA.norm>
-0.133331

>  <SCORE.RESTR>
0

>  <SCORE.RESTR.CAVITY>
0

>  <SCORE.RESTR.norm>
0

>  <SCORE.SYSTEM>
0

>  <SCORE.SYSTEM.CONST>
0

>  <SCORE.SYSTEM.DIHEDRAL>
0

>  <SCORE.SYSTEM.SOLV>
0

>  <SCORE.SYSTEM.norm>
0

>  <SCORE.heavy>
22

>  <SCORE.norm>
-0.328207

>  <RMSD>
32.450

$$$$
lig.pdb
 OpenBabel11021811523D
libRbt.so/2013.1/901 2013/11/27
 22 23  0  0  0  0  0  0  0  0999 V2000
   12.9120  -17.7290   -3.0198 C   0  0  1  0  0  0  0  0  0  0  0  0
   10.9347  -17.2679   -4.4779 C   0  0  1  0  0  0  0  0  0  0  0  0
    9.7866  -18.0278   -3.5871 C   0  0  1  0  0  0  0  0  0  0  0  0
    8.3664  -17.3654   -3.9603 C   0  0  2  0  0  0  0  0  0  0  0  0
   14.4297  -18.2189   -2.9922 C   0  0  1  0  0  0  0  0  0  0  0  0
   14.5106  -19.7823   -3.1939 C   0  0  2  0  0  0  0  0  0  0  0  0
   13.7356  -20.4901   -1.9770 C   0  0  1  0  0  0  0  0  0  0  0  0
   12.1680  -20.0816   -2.0007 C   0  0  1  0  0  0  0  0  0  0  0  0
   11.3345  -20.7312   -0.8616 C   0  0  0  0  0  0  0  0  0  0  0  0
    8.4231  -15.8196   -3.5250 C   0  0  1  0  0  0  0  0  0  0  0  0
    9.5700  -15.1106   -4.4084 C   0  0  0  0  0  0  0  0  0  0  0  0
   10.9870  -15.7646   -4.1144 C   0  0  2  0  0  0  0  0  0  0  0  0
   13.7828  -21.9526   -2.0793 F   0  0  0  0  0  0  0  0  0  0  0  0
   15.1394  -17.4326   -4.1047 N   0  0  0  0  0  0  0  0  0  0  0  0
    9.9435  -20.4696   -0.9313 N   0  0  0  0  0  0  0  0  0  0  0  0
    7.1328  -15.1369   -3.8575 N   0  0  0  0  0  0  0  0  0  0  0  0
   12.0328  -15.1420   -4.9205 N   0  0  0  0  0  0  0  0  0  0  0  0
   12.2322  -17.7503   -4.2114 O   0  0  0  0  0  0  0  0  0  0  0  0
    9.7709  -19.4700   -3.9823 O   0  0  0  0  0  0  0  0  0  0  0  0
    7.3889  -18.0019   -3.2088 O   0  0  0  0  0  0  0  0  0  0  0  0
   15.6468  -20.0876   -3.1591 O   0  0  0  0  0  0  0  0  0  0  0  0
   12.1089  -18.5099   -1.9302 O   0  0  0  0  0  0  0  0  0  0  0  0
  1  5  1  0  0  0  0
  1 18  1  6  0  0  0
  2 18  1  1  0  0  0
  2  3  1  0  0  0  0
  2 12  1  0  0  0  0
  3 19  1  6  0  0  0
  3  4  1  0  0  0  0
  4 20  1  1  0  0  0
  4 10  1  0  0  0  0
  5  6  1  0  0  0  0
  5 14  1  6  0  0  0
  6 21  1  1  0  0  0
  7 13  1  6  0  0  0
  7  6  1  0  0  0  0
  8  9  1  1  0  0  0
  8  7  1  0  0  0  0
 10 16  1  6  0  0  0
 11 10  1  0  0  0  0
 12 17  1  6  0  0  0
 12 11  1  0  0  0  0
 15  9  1  0  0  0  0
 22  8  1  0  0  0  0
 22  1  1  0  0  0  0
M  END
>  <CHROM.1>
-174.54875799,-60.98879110,-175.21152791,11.50040931,-18.27971032,-3.18714648
-0.64370241,0.11579381,-0.50419109

>  <Name>
lig.pdb

>  <RI>
0

>  <Rbt.Current_Directory>
/home/itssahil/PROJECTS/Mol_Feturizer/New_Systems/rnas/5bxk

>  <Rbt.Executable>
rbdock ($Id: //depot/dev/client3/rdock/2013.1/src/exe/rbdock.cxx#4 $)

>  <Rbt.Library>
libRbt.so (2013.1, Build901 2013/11/27)

>  <Rbt.Parameter_File>
/export/apps/rDock/src/rDock_2013.1_src/data/scripts/dock_solv.prm

>  <Rbt.Receptor>
prm/blind_docking_40.prm

>  <SCORE>
-7.49618

>  <SCORE.INTER>
-4.58618

>  <SCORE.INTER.CONST>
1

>  <SCORE.INTER.POLAR>
0

>  <SCORE.INTER.ROT>
3

>  <SCORE.INTER.SOLV>
15.9944

>  <SCORE.INTER.VDW>
-13.9889

>  <SCORE.INTER.norm>
-0.208463

>  <SCORE.INTRA>
-2.91001

>  <SCORE.INTRA.DIHEDRAL>
-6.81649

>  <SCORE.INTRA.DIHEDRAL.0>
7.18044

>  <SCORE.INTRA.POLAR>
0

>  <SCORE.INTRA.POLAR.0>
0

>  <SCORE.INTRA.REPUL>
0

>  <SCORE.INTRA.REPUL.0>
0

>  <SCORE.INTRA.SOLV>
1.43461

>  <SCORE.INTRA.SOLV.lig_0>
-72.0615

>  <SCORE.INTRA.VDW>
-0.219066

>  <SCORE.INTRA.VDW.0>
-1.54792

>  <SCORE.INTRA.norm>
-0.132273

>  <SCORE.RESTR>
0

>  <SCORE.RESTR.CAVITY>
0

>  <SCORE.RESTR.norm>
0

>  <SCORE.SYSTEM>
0

>  <SCORE.SYSTEM.CONST>
0

>  <SCORE.SYSTEM.DIHEDRAL>
0

>  <SCORE.SYSTEM.SOLV>
0

>  <SCORE.SYSTEM.norm>
0

>  <SCORE.heavy>
22

>  <SCORE.norm>
-0.340736

>  <RMSD>
32.453

$$$$
lig.pdb
 OpenBabel11021811523D
libRbt.so/2013.1/901 2013/11/27
 22 23  0  0  0  0  0  0  0  0999 V2000
    8.7482  -19.7294   -2.9822 C   0  0  1  0  0  0  0  0  0  0  0  0
    9.8294  -17.6929   -3.9478 C   0  0  1  0  0  0  0  0  0  0  0  0
    8.6342  -16.6194   -3.6184 C   0  0  1  0  0  0  0  0  0  0  0  0
    8.8272  -15.3612   -4.6057 C   0  0  2  0  0  0  0  0  0  0  0  0
    7.9322  -19.7614   -1.6121 C   0  0  1  0  0  0  0  0  0  0  0  0
    8.8203  -20.3595   -0.4524 C   0  0  2  0  0  0  0  0  0  0  0  0
    9.2061  -21.8708   -0.8388 C   0  0  1  0  0  0  0  0  0  0  0  0
   10.1001  -21.8906   -2.1898 C   0  0  1  0  0  0  0  0  0  0  0  0
   10.5305  -23.3158   -2.6349 C   0  0  0  0  0  0  0  0  0  0  0  0
   10.2430  -14.6852   -4.2584 C   0  0  1  0  0  0  0  0  0  0  0  0
   11.3892  -15.7721   -4.5794 C   0  0  0  0  0  0  0  0  0  0  0  0
   11.2122  -17.0584   -3.6650 C   0  0  2  0  0  0  0  0  0  0  0  0
   10.0181  -22.5084    0.2031 F   0  0  0  0  0  0  0  0  0  0  0  0
    7.5026  -18.3097   -1.3515 N   0  0  0  0  0  0  0  0  0  0  0  0
   11.2954  -23.3511   -3.8273 N   0  0  0  0  0  0  0  0  0  0  0  0
   10.4933  -13.5111   -5.1531 N   0  0  0  0  0  0  0  0  0  0  0  0
   12.2351  -18.0582   -3.9572 N   0  0  0  0  0  0  0  0  0  0  0  0
    9.7766  -18.8313   -3.1180 O   0  0  0  0  0  0  0  0  0  0  0  0
    7.3244  -17.2766   -3.9163 O   0  0  0  0  0  0  0  0  0  0  0  0
    7.8203  -14.4466   -4.3319 O   0  0  0  0  0  0  0  0  0  0  0  0
    8.1694  -20.3647    0.5282 O   0  0  0  0  0  0  0  0  0  0  0  0
    9.2512  -21.1733   -3.3048 O   0  0  0  0  0  0  0  0  0  0  0  0
  1  5  1  0  0  0  0
  1 18  1  1  0  0  0
  2 18  1  1  0  0  0
  2  3  1  0  0  0  0
  2 12  1  0  0  0  0
  3 19  1  6  0  0  0
  3  4  1  0  0  0  0
  4 20  1  1  0  0  0
  4 10  1  0  0  0  0
  5  6  1  0  0  0  0
  5 14  1  1  0  0  0
  6 21  1  1  0  0  0
  7 13  1  1  0  0  0
  7  6  1  0  0  0  0
  8  9  1  6  0  0  0
  8  7  1  0  0  0  0
 10 16  1  6  0  0  0
 11 10  1  0  0  0  0
 12 17  1  6  0  0  0
 12 11  1  0  0  0  0
 15  9  1  0  0  0  0
 22  8  1  0  0  0  0
 22  1  1  0  0  0  0
M  END
>  <CHROM.1>
-110.74656853,59.17830049,179.04232374,9.49623402,-18.78253607,-2.84266660
1.55995857,-0.63649295,2.71784444

>  <Name>
lig.pdb

>  <RI>
0

>  <Rbt.Current_Directory>
/home/itssahil/PROJECTS/Mol_Feturizer/New_Systems/rnas/5bxk

>  <Rbt.Executable>
rbdock ($Id: //depot/dev/client3/rdock/2013.1/src/exe/rbdock.cxx#4 $)

>  <Rbt.Library>
libRbt.so (2013.1, Build901 2013/11/27)

>  <Rbt.Parameter_File>
/export/apps/rDock/src/rDock_2013.1_src/data/scripts/dock_solv.prm

>  <Rbt.Receptor>
prm/blind_docking_60.prm

>  <SCORE>
-4.36854

>  <SCORE.INTER>
-4.49322

>  <SCORE.INTER.CONST>
1

>  <SCORE.INTER.POLAR>
0

>  <SCORE.INTER.ROT>
3

>  <SCORE.INTER.SOLV>
19.4352

>  <SCORE.INTER.VDW>
-15.0739

>  <SCORE.INTER.norm>
-0.204237

>  <SCORE.INTRA>
0.124676

>  <SCORE.INTRA.DIHEDRAL>
-0.506216

>  <SCORE.INTRA.DIHEDRAL.0>
7.18044

>  <SCORE.INTRA.POLAR>
0

>  <SCORE.INTRA.POLAR.0>
0

>  <SCORE.INTRA.REPUL>
0

>  <SCORE.INTRA.REPUL.0>
0

>  <SCORE.INTRA.SOLV>
0.621822

>  <SCORE.INTRA.SOLV.lig_0>
-72.0615

>  <SCORE.INTRA.VDW>
0.0668734

>  <SCORE.INTRA.VDW.0>
-1.54792

>  <SCORE.INTRA.norm>
0.00566711

>  <SCORE.RESTR>
0

>  <SCORE.RESTR.CAVITY>
0

>  <SCORE.RESTR.norm>
0

>  <SCORE.SYSTEM>
0

>  <SCORE.SYSTEM.CONST>
0

>  <SCORE.SYSTEM.DIHEDRAL>
0

>  <SCORE.SYSTEM.SOLV>
0

>  <SCORE.SYSTEM.norm>
0

>  <SCORE.heavy>
22

>  <SCORE.norm>
-0.19857

>  <RMSD>
32.495

$$$$
lig.pdb
 OpenBabel11021811523D
libRbt.so/2013.1/901 2013/11/27
 22 23  0  0  0  0  0  0  0  0999 V2000
    8.7578  -19.7276   -3.0072 C   0  0  1  0  0  0  0  0  0  0  0  0
    9.8272  -17.6779   -3.9576 C   0  0  1  0  0  0  0  0  0  0  0  0
    8.6321  -16.6103   -3.6093 C   0  0  1  0  0  0  0  0  0  0  0  0
    8.8159  -15.3418   -4.5851 C   0  0  2  0  0  0  0  0  0  0  0  0
    7.9317  -19.7584   -1.6431 C   0  0  1  0  0  0  0  0  0  0  0  0
    8.8142  -20.3471   -0.4744 C   0  0  2  0  0  0  0  0  0  0  0  0
    9.2108  -21.8580   -0.8518 C   0  0  1  0  0  0  0  0  0  0  0  0
   10.1150  -21.8785   -2.1960 C   0  0  1  0  0  0  0  0  0  0  0  0
   10.5561  -23.3032   -2.6320 C   0  0  0  0  0  0  0  0  0  0  0  0
   10.2326  -14.6663   -4.2407 C   0  0  1  0  0  0  0  0  0  0  0  0
   11.3788  -15.7476   -4.5804 C   0  0  0  0  0  0  0  0  0  0  0  0
   11.2107  -17.0434   -3.6778 C   0  0  2  0  0  0  0  0  0  0  0  0
   10.0184  -22.4870    0.1988 F   0  0  0  0  0  0  0  0  0  0  0  0
    7.4925  -18.3080   -1.3916 N   0  0  0  0  0  0  0  0  0  0  0  0
    9.4874  -24.1666   -2.9791 N   0  0  0  0  0  0  0  0  0  0  0  0
   10.4745  -13.4828   -5.1252 N   0  0  0  0  0  0  0  0  0  0  0  0
   12.2336  -18.0380   -3.9870 N   0  0  0  0  0  0  0  0  0  0  0  0
    9.7824  -18.8247   -3.1390 O   0  0  0  0  0  0  0  0  0  0  0  0
    7.3216  -17.2672   -3.9049 O   0  0  0  0  0  0  0  0  0  0  0  0
    7.8090  -14.4321   -4.2953 O   0  0  0  0  0  0  0  0  0  0  0  0
    8.1560  -20.3518    0.5013 O   0  0  0  0  0  0  0  0  0  0  0  0
    9.2707  -21.1702   -3.3202 O   0  0  0  0  0  0  0  0  0  0  0  0
  1  5  1  0  0  0  0
  1 18  1  1  0  0  0
  2 18  1  1  0  0  0
  2  3  1  0  0  0  0
  2 12  1  0  0  0  0
  3 19  1  6  0  0  0
  3  4  1  0  0  0  0
  4 20  1  1  0  0  0
  4 10  1  0  0  0  0
  5  6  1  0  0  0  0
  5 14  1  1  0  0  0
  6 21  1  1  0  0  0
  7 13  1  1  0  0  0
  7  6  1  0  0  0  0
  8  9  1  6  0  0  0
  8  7  1  0  0  0  0
 10 16  1  6  0  0  0
 11 10  1  0  0  0  0
 12 17  1  6  0  0  0
 12 11  1  0  0  0  0
 15  9  1  0  0  0  0
 22  8  1  0  0  0  0
 22  1  1  0  0  0  0
M  END
>  <CHROM.1>
-109.66804558,59.31253540,63.14820900,9.41442170,-18.80645652,-2.81058607
1.60070893,-0.59844009,2.74753190

>  <Name>
lig.pdb

>  <RI>
0

>  <Rbt.Current_Directory>
/home/itssahil/PROJECTS/Mol_Feturizer/New_Systems/rnas/5bxk

>  <Rbt.Executable>
rbdock ($Id: //depot/dev/client3/rdock/2013.1/src/exe/rbdock.cxx#4 $)

>  <Rbt.Library>
libRbt.so (2013.1, Build901 2013/11/27)

>  <Rbt.Parameter_File>
/export/apps/rDock/src/rDock_2013.1_src/data/scripts/dock_solv.prm

>  <Rbt.Receptor>
prm/blind_docking_60.prm

>  <SCORE>
-3.69114

>  <SCORE.INTER>
-4.27858

>  <SCORE.INTER.CONST>
1

>  <SCORE.INTER.POLAR>
0

>  <SCORE.INTER.ROT>
3

>  <SCORE.INTER.SOLV>
19.9464

>  <SCORE.INTER.VDW>
-15.1012

>  <SCORE.INTER.norm>
-0.194481

>  <SCORE.INTRA>
0.587434

>  <SCORE.INTRA.DIHEDRAL>
-0.569909

>  <SCORE.INTRA.DIHEDRAL.0>
7.18044

>  <SCORE.INTRA.POLAR>
0

>  <SCORE.INTRA.POLAR.0>
0

>  <SCORE.INTRA.REPUL>
0

>  <SCORE.INTRA.REPUL.0>
0

>  <SCORE.INTRA.SOLV>
1.71399

>  <SCORE.INTRA.SOLV.lig_0>
-72.0615

>  <SCORE.INTRA.VDW>
0.0153949

>  <SCORE.INTRA.VDW.0>
-1.54792

>  <SCORE.INTRA.norm>
0.0267015

>  <SCORE.RESTR>
0

>  <SCORE.RESTR.CAVITY>
0

>  <SCORE.RESTR.norm>
0

>  <SCORE.SYSTEM>
0

>  <SCORE.SYSTEM.CONST>
0

>  <SCORE.SYSTEM.DIHEDRAL>
0

>  <SCORE.SYSTEM.SOLV>
0

>  <SCORE.SYSTEM.norm>
0

>  <SCORE.heavy>
22

>  <SCORE.norm>
-0.167779

>  <RMSD>
32.499

$$$$
lig.pdb
 OpenBabel11021811523D
libRbt.so/2013.1/901 2013/11/27
 22 23  0  0  0  0  0  0  0  0999 V2000
   12.7495  -18.6521   -2.7856 C   0  0  1  0  0  0  0  0  0  0  0  0
   10.9110  -17.7400   -4.2127 C   0  0  1  0  0  0  0  0  0  0  0  0
    9.6252  -18.4655   -3.4987 C   0  0  1  0  0  0  0  0  0  0  0  0
    8.3266  -17.5638   -3.8079 C   0  0  2  0  0  0  0  0  0  0  0  0
   14.1356  -19.4412   -2.7819 C   0  0  1  0  0  0  0  0  0  0  0  0
   13.9063  -20.9651   -3.1234 C   0  0  2  0  0  0  0  0  0  0  0  0
   12.9663  -21.6023   -1.9865 C   0  0  1  0  0  0  0  0  0  0  0  0
   11.5147  -20.8828   -1.9944 C   0  0  1  0  0  0  0  0  0  0  0  0
   10.5316  -21.4447   -0.9304 C   0  0  0  0  0  0  0  0  0  0  0  0
    8.5590  -16.1284   -3.1242 C   0  0  1  0  0  0  0  0  0  0  0  0
    9.8365  -15.4537   -3.8392 C   0  0  0  0  0  0  0  0  0  0  0  0
   11.1375  -16.3342   -3.6068 C   0  0  2  0  0  0  0  0  0  0  0  0
   12.7210  -23.0295   -2.2203 F   0  0  0  0  0  0  0  0  0  0  0  0
   15.0242  -18.7231   -3.8087 N   0  0  0  0  0  0  0  0  0  0  0  0
    9.2519  -20.8361   -0.9361 N   0  0  0  0  0  0  0  0  0  0  0  0
    7.3894  -15.2311   -3.3855 N   0  0  0  0  0  0  0  0  0  0  0  0
   12.2994  -15.7423   -4.2633 N   0  0  0  0  0  0  0  0  0  0  0  0
   12.1176  -18.4321   -3.9835 O   0  0  0  0  0  0  0  0  0  0  0  0
    9.4446  -19.8116   -4.1245 O   0  0  0  0  0  0  0  0  0  0  0  0
    7.2337  -18.1701   -3.2051 O   0  0  0  0  0  0  0  0  0  0  0  0
   14.9559  -21.4971   -3.1009 O   0  0  0  0  0  0  0  0  0  0  0  0
   11.7713  -19.3440   -1.7825 O   0  0  0  0  0  0  0  0  0  0  0  0
  1  5  1  0  0  0  0
  1 18  1  6  0  0  0
  2 18  1  1  0  0  0
  2  3  1  0  0  0  0
  2 12  1  0  0  0  0
  3 19  1  6  0  0  0
  3  4  1  0  0  0  0
  4 20  1  1  0  0  0
  4 10  1  0  0  0  0
  5  6  1  0  0  0  0
  5 14  1  6  0  0  0
  6 21  1  1  0  0  0
  7 13  1  6  0  0  0
  7  6  1  0  0  0  0
  8  9  1  1  0  0  0
  8  7  1  0  0  0  0
 10 16  1  6  0  0  0
 11 10  1  0  0  0  0
 12 17  1  6  0  0  0
 12 11  1  0  0  0  0
 15  9  1  0  0  0  0
 22  8  1  0  0  0  0
 22  1  1  0  0  0  0
M  END
>  <CHROM.1>
-178.59524125,-63.45394080,-179.26908612,11.21567917,-18.97329614,-3.01465023
-0.78823058,0.15695711,-0.37686055

>  <Name>
lig.pdb

>  <RI>
0

>  <Rbt.Current_Directory>
/home/itssahil/PROJECTS/Mol_Feturizer/New_Systems/rnas/5bxk

>  <Rbt.Executable>
rbdock ($Id: //depot/dev/client3/rdock/2013.1/src/exe/rbdock.cxx#4 $)

>  <Rbt.Library>
libRbt.so (2013.1, Build901 2013/11/27)

>  <Rbt.Parameter_File>
/export/apps/rDock/src/rDock_2013.1_src/data/scripts/dock_solv.prm

>  <Rbt.Receptor>
prm/blind_docking_60.prm

>  <SCORE>
-7.15859

>  <SCORE.INTER>
-4.23242

>  <SCORE.INTER.CONST>
1

>  <SCORE.INTER.POLAR>
0

>  <SCORE.INTER.ROT>
3

>  <SCORE.INTER.SOLV>
12.9122

>  <SCORE.INTER.VDW>
-12.7257

>  <SCORE.INTER.norm>
-0.192383

>  <SCORE.INTRA>
-2.92651

>  <SCORE.INTRA.DIHEDRAL>
-6.97486

>  <SCORE.INTRA.DIHEDRAL.0>
7.18044

>  <SCORE.INTRA.POLAR>
0

>  <SCORE.INTRA.POLAR.0>
0

>  <SCORE.INTRA.REPUL>
0

>  <SCORE.INTRA.REPUL.0>
0

>  <SCORE.INTRA.SOLV>
1.46354

>  <SCORE.INTRA.SOLV.lig_0>
-72.0615

>  <SCORE.INTRA.VDW>
-0.170848

>  <SCORE.INTRA.VDW.0>
-1.54792

>  <SCORE.INTRA.norm>
-0.133023

>  <SCORE.RESTR>
0.000335383

>  <SCORE.RESTR.CAVITY>
0.000335383

>  <SCORE.RESTR.norm>
1.52447e-05

>  <SCORE.SYSTEM>
0

>  <SCORE.SYSTEM.CONST>
0

>  <SCORE.SYSTEM.DIHEDRAL>
0

>  <SCORE.SYSTEM.SOLV>
0

>  <SCORE.SYSTEM.norm>
0

>  <SCORE.heavy>
22

>  <SCORE.norm>
-0.325391

>  <RMSD>
32.502

$$$$
lig.pdb
 OpenBabel11021811523D
libRbt.so/2013.1/901 2013/11/27
 22 23  0  0  0  0  0  0  0  0999 V2000
   12.0954  -18.3366   -3.9022 C   0  0  1  0  0  0  0  0  0  0  0  0
   11.0068  -19.9370   -2.3204 C   0  0  1  0  0  0  0  0  0  0  0  0
   10.6818  -21.0917   -3.4385 C   0  0  1  0  0  0  0  0  0  0  0  0
    9.5336  -22.0447   -2.8314 C   0  0  2  0  0  0  0  0  0  0  0  0
   13.1662  -17.1599   -4.0166 C   0  0  1  0  0  0  0  0  0  0  0  0
   12.7494  -15.9413   -3.1041 C   0  0  2  0  0  0  0  0  0  0  0  0
   11.3353  -15.3813   -3.6228 C   0  0  1  0  0  0  0  0  0  0  0  0
   10.1919  -16.5177   -3.4613 C   0  0  1  0  0  0  0  0  0  0  0  0
    8.7830  -16.0591   -3.9297 C   0  0  0  0  0  0  0  0  0  0  0  0
   10.1325  -22.7483   -1.5167 C   0  0  1  0  0  0  0  0  0  0  0  0
   10.4533  -21.5840   -0.4490 C   0  0  0  0  0  0  0  0  0  0  0  0
   11.5461  -20.5847   -1.0225 C   0  0  2  0  0  0  0  0  0  0  0  0
   10.8853  -14.2280   -2.8362 F   0  0  0  0  0  0  0  0  0  0  0  0
   14.5107  -17.7819   -3.6103 N   0  0  0  0  0  0  0  0  0  0  0  0
    8.2507  -14.9661   -3.2016 N   0  0  0  0  0  0  0  0  0  0  0  0
    9.1074  -23.6425   -0.8913 N   0  0  0  0  0  0  0  0  0  0  0  0
   11.8342  -19.5155   -0.0712 N   0  0  0  0  0  0  0  0  0  0  0  0
   12.0252  -19.0549   -2.7353 O   0  0  0  0  0  0  0  0  0  0  0  0
   10.1567  -20.4162   -4.6650 O   0  0  0  0  0  0  0  0  0  0  0  0
    9.2538  -23.0264   -3.7712 O   0  0  0  0  0  0  0  0  0  0  0  0
   13.5674  -15.1047   -3.2317 O   0  0  0  0  0  0  0  0  0  0  0  0
   10.6850  -17.7742   -4.2714 O   0  0  0  0  0  0  0  0  0  0  0  0
  1  5  1  0  0  0  0
  1 18  1  1  0  0  0
  2 18  1  6  0  0  0
  2  3  1  0  0  0  0
  2 12  1  0  0  0  0
  3 19  1  6  0  0  0
  3  4  1  0  0  0  0
  4 20  1  6  0  0  0
  4 10  1  0  0  0  0
  5  6  1  0  0  0  0
  5 14  1  1  0  0  0
  6 21  1  6  0  0  0
  7 13  1  1  0  0  0
  7  6  1  0  0  0  0
  8  9  1  6  0  0  0
  8  7  1  0  0  0  0
 10 16  1  1  0  0  0
 11 10  1  0  0  0  0
 12 17  1  1  0  0  0
 12 11  1  0  0  0  0
 15  9  1  0  0  0  0
 22  8  1  0  0  0  0
 22  1  1  0  0  0  0
M  END
>  <CHROM.1>
166.31489174,53.17652320,-62.00715023,10.99252006,-18.69896653,-2.88448466
-1.34824354,0.18936869,2.89681488

>  <Name>
lig.pdb

>  <RI>
0

>  <Rbt.Current_Directory>
/home/itssahil/PROJECTS/Mol_Feturizer/New_Systems/rnas/5bxk

>  <Rbt.Executable>
rbdock ($Id: //depot/dev/client3/rdock/2013.1/src/exe/rbdock.cxx#4 $)

>  <Rbt.Library>
libRbt.so (2013.1, Build901 2013/11/27)

>  <Rbt.Parameter_File>
/export/apps/rDock/src/rDock_2013.1_src/data/scripts/dock_solv.prm

>  <Rbt.Receptor>
prm/blind_docking_80.prm

>  <SCORE>
-4.8832

>  <SCORE.INTER>
-1.77838

>  <SCORE.INTER.CONST>
1

>  <SCORE.INTER.POLAR>
0

>  <SCORE.INTER.ROT>
3

>  <SCORE.INTER.SOLV>
18.9386

>  <SCORE.INTER.VDW>
-13.0985

>  <SCORE.INTER.norm>
-0.0808356

>  <SCORE.INTRA>
-3.10662

>  <SCORE.INTRA.DIHEDRAL>
-5.95127

>  <SCORE.INTRA.DIHEDRAL.0>
7.18044

>  <SCORE.INTRA.POLAR>
0

>  <SCORE.INTRA.POLAR.0>
0

>  <SCORE.INTRA.REPUL>
0

>  <SCORE.INTRA.REPUL.0>
0

>  <SCORE.INTRA.SOLV>
-0.772721

>  <SCORE.INTRA.SOLV.lig_0>
-72.0615

>  <SCORE.INTRA.VDW>
0.255379

>  <SCORE.INTRA.VDW.0>
-1.54792

>  <SCORE.INTRA.norm>
-0.14121

>  <SCORE.RESTR>
0.00179942

>  <SCORE.RESTR.CAVITY>
0.00179942

>  <SCORE.RESTR.norm>
8.17918e-05

>  <SCORE.SYSTEM>
0

>  <SCORE.SYSTEM.CONST>
0

>  <SCORE.SYSTEM.DIHEDRAL>
0

>  <SCORE.SYSTEM.SOLV>
0

>  <SCORE.SYSTEM.norm>
0

>  <SCORE.heavy>
22

>  <SCORE.norm>
-0.221964

>  <RMSD>
32.553

$$$$
lig.pdb
 OpenBabel11021811523D
libRbt.so/2013.1/901 2013/11/27
 22 23  0  0  0  0  0  0  0  0999 V2000
   10.7747  -15.6259   -4.4034 C   0  0  1  0  0  0  0  0  0  0  0  0
   12.2283  -17.0423   -2.9441 C   0  0  1  0  0  0  0  0  0  0  0  0
   11.7181  -18.4278   -3.6578 C   0  0  1  0  0  0  0  0  0  0  0  0
   12.7860  -19.5793   -3.2991 C   0  0  2  0  0  0  0  0  0  0  0  0
   10.2513  -14.1345   -4.6169 C   0  0  1  0  0  0  0  0  0  0  0  0
    8.9863  -13.8570   -3.7146 C   0  0  2  0  0  0  0  0  0  0  0  0
    7.8165  -14.8649   -4.1598 C   0  0  1  0  0  0  0  0  0  0  0  0
    8.2700  -16.3977   -3.8959 C   0  0  1  0  0  0  0  0  0  0  0  0
    7.1922  -17.4458   -4.2885 C   0  0  0  0  0  0  0  0  0  0  0  0
   14.1948  -19.1516   -3.9428 C   0  0  1  0  0  0  0  0  0  0  0  0
   14.6559  -17.7815   -3.2296 C   0  0  0  0  0  0  0  0  0  0  0  0
   13.6061  -16.6236   -3.5108 C   0  0  2  0  0  0  0  0  0  0  0  0
    6.5923  -14.6562   -3.3792 F   0  0  0  0  0  0  0  0  0  0  0  0
   11.4417  -13.2248   -4.2777 N   0  0  0  0  0  0  0  0  0  0  0  0
    7.5450  -18.7867   -3.9956 N   0  0  0  0  0  0  0  0  0  0  0  0
   15.2414  -20.1768   -3.6344 N   0  0  0  0  0  0  0  0  0  0  0  0
   14.0038  -15.3806   -2.8566 N   0  0  0  0  0  0  0  0  0  0  0  0
   11.3784  -15.9506   -3.2148 O   0  0  0  0  0  0  0  0  0  0  0  0
   10.3922  -18.7922   -3.0701 O   0  0  0  0  0  0  0  0  0  0  0  0
   12.3624  -20.7555   -3.9013 O   0  0  0  0  0  0  0  0  0  0  0  0
    8.6410  -12.7500   -3.9160 O   0  0  0  0  0  0  0  0  0  0  0  0
    9.6054  -16.6193   -4.6998 O   0  0  0  0  0  0  0  0  0  0  0  0
  1  5  1  0  0  0  0
  1 18  1  1  0  0  0
  2 18  1  6  0  0  0
  2  3  1  0  0  0  0
  2 12  1  0  0  0  0
  3 19  1  1  0  0  0
  3  4  1  0  0  0  0
  4 20  1  6  0  0  0
  4 10  1  0  0  0  0
  5  6  1  0  0  0  0
  5 14  1  1  0  0  0
  6 21  1  6  0  0  0
  7 13  1  1  0  0  0
  7  6  1  0  0  0  0
  8  9  1  6  0  0  0
  8  7  1  0  0  0  0
 10 16  1  1  0  0  0
 11 10  1  0  0  0  0
 12 17  1  1  0  0  0
 12 11  1  0  0  0  0
 15  9  1  0  0  0  0
 22  8  1  0  0  0  0
 22  1  1  0  0  0  0
M  END
>  <CHROM.1>
-160.50469954,-41.03232495,-176.71188879,10.80754368,-16.70826955,-3.74725483
-2.49023906,0.07388991,3.13027818

>  <Name>
lig.pdb

>  <RI>
0

>  <Rbt.Current_Directory>
/home/itssahil/PROJECTS/Mol_Feturizer/New_Systems/rnas/5bxk

>  <Rbt.Executable>
rbdock ($Id: //depot/dev/client3/rdock/2013.1/src/exe/rbdock.cxx#4 $)

>  <Rbt.Library>
libRbt.so (2013.1, Build901 2013/11/27)

>  <Rbt.Parameter_File>
/export/apps/rDock/src/rDock_2013.1_src/data/scripts/dock_solv.prm

>  <Rbt.Receptor>
prm/blind_docking_100.prm

>  <SCORE>
-6.3312

>  <SCORE.INTER>
-5.14473

>  <SCORE.INTER.CONST>
1

>  <SCORE.INTER.POLAR>
0

>  <SCORE.INTER.ROT>
3

>  <SCORE.INTER.SOLV>
11.662

>  <SCORE.INTER.VDW>
-12.9171

>  <SCORE.INTER.norm>
-0.233851

>  <SCORE.INTRA>
-1.18647

>  <SCORE.INTRA.DIHEDRAL>
-3.71705

>  <SCORE.INTRA.DIHEDRAL.0>
7.18044

>  <SCORE.INTRA.POLAR>
0

>  <SCORE.INTRA.POLAR.0>
0

>  <SCORE.INTRA.REPUL>
0

>  <SCORE.INTRA.REPUL.0>
0

>  <SCORE.INTRA.SOLV>
1.64483

>  <SCORE.INTRA.SOLV.lig_0>
-72.0615

>  <SCORE.INTRA.VDW>
-0.150358

>  <SCORE.INTRA.VDW.0>
-1.54792

>  <SCORE.INTRA.norm>
-0.0539304

>  <SCORE.RESTR>
0

>  <SCORE.RESTR.CAVITY>
0

>  <SCORE.RESTR.norm>
0

>  <SCORE.SYSTEM>
0

>  <SCORE.SYSTEM.CONST>
0

>  <SCORE.SYSTEM.DIHEDRAL>
0

>  <SCORE.SYSTEM.SOLV>
0

>  <SCORE.SYSTEM.norm>
0

>  <SCORE.heavy>
22

>  <SCORE.norm>
-0.287782

>  <RMSD>
32.581

$$$$
lig.pdb
 OpenBabel11021811523D
libRbt.so/2013.1/901 2013/11/27
 22 23  0  0  0  0  0  0  0  0999 V2000
   11.1175  -18.2144   -4.0795 C   0  0  1  0  0  0  0  0  0  0  0  0
   13.0235  -18.5328   -2.4938 C   0  0  1  0  0  0  0  0  0  0  0  0
   13.2200  -20.1602   -2.5378 C   0  0  1  0  0  0  0  0  0  0  0  0
   14.7511  -20.4742   -2.1476 C   0  0  2  0  0  0  0  0  0  0  0  0
    9.6432  -17.6313   -4.2535 C   0  0  1  0  0  0  0  0  0  0  0  0
    8.5946  -18.5450   -3.5072 C   0  0  2  0  0  0  0  0  0  0  0  0
    8.6344  -20.0075   -4.1717 C   0  0  1  0  0  0  0  0  0  0  0  0
   10.0944  -20.6772   -3.9599 C   0  0  1  0  0  0  0  0  0  0  0  0
   10.2224  -22.1034   -4.5633 C   0  0  0  0  0  0  0  0  0  0  0  0
   15.6847  -19.8075   -3.2727 C   0  0  1  0  0  0  0  0  0  0  0  0
   15.4538  -18.2134   -3.2099 C   0  0  0  0  0  0  0  0  0  0  0  0
   13.9421  -17.8538   -3.5378 C   0  0  2  0  0  0  0  0  0  0  0  0
    7.6684  -20.9163   -3.5452 F   0  0  0  0  0  0  0  0  0  0  0  0
    9.6951  -16.2001   -3.6981 N   0  0  0  0  0  0  0  0  0  0  0  0
   11.4980  -22.6976   -4.3965 N   0  0  0  0  0  0  0  0  0  0  0  0
   17.1290  -20.0510   -2.9629 N   0  0  0  0  0  0  0  0  0  0  0  0
   13.7156  -16.4133   -3.4684 N   0  0  0  0  0  0  0  0  0  0  0  0
   11.7178  -18.1367   -2.8481 O   0  0  0  0  0  0  0  0  0  0  0  0
   12.3204  -20.7649   -1.5075 O   0  0  0  0  0  0  0  0  0  0  0  0
   14.9264  -21.8502   -2.1844 O   0  0  0  0  0  0  0  0  0  0  0  0
    7.5291  -18.0732   -3.6732 O   0  0  0  0  0  0  0  0  0  0  0  0
   11.1421  -19.6891   -4.5958 O   0  0  0  0  0  0  0  0  0  0  0  0
  1  5  1  0  0  0  0
  1 18  1  1  0  0  0
  2 18  1  6  0  0  0
  2  3  1  0  0  0  0
  2 12  1  0  0  0  0
  3 19  1  1  0  0  0
  3  4  1  0  0  0  0
  4 20  1  6  0  0  0
  4 10  1  0  0  0  0
  5  6  1  0  0  0  0
  5 14  1  1  0  0  0
  6 21  1  6  0  0  0
  7 13  1  1  0  0  0
  7  6  1  0  0  0  0
  8  9  1  6  0  0  0
  8  7  1  0  0  0  0
 10 16  1  1  0  0  0
 11 10  1  0  0  0  0
 12 17  1  1  0  0  0
 12 11  1  0  0  0  0
 15  9  1  0  0  0  0
 22  8  1  0  0  0  0
 22  1  1  0  0  0  0
M  END
>  <CHROM.1>
-176.96646052,-68.79929511,179.45240786,11.81835792,-19.45002295,-3.38027203
-3.06903152,0.16387392,3.11557296

>  <Name>
lig.pdb

>  <RI>
0

>  <Rbt.Current_Directory>
/home/itssahil/PROJECTS/Mol_Feturizer/New_Systems/rnas/5bxk

>  <Rbt.Executable>
rbdock ($Id: //depot/dev/client3/rdock/2013.1/src/exe/rbdock.cxx#4 $)

>  <Rbt.Library>
libRbt.so (2013.1, Build901 2013/11/27)

>  <Rbt.Parameter_File>
/export/apps/rDock/src/rDock_2013.1_src/data/scripts/dock_solv.prm

>  <Rbt.Receptor>
prm/blind_docking_100.prm

>  <SCORE>
-4.51441

>  <SCORE.INTER>
-1.69476

>  <SCORE.INTER.CONST>
1

>  <SCORE.INTER.POLAR>
0

>  <SCORE.INTER.ROT>
3

>  <SCORE.INTER.SOLV>
13.2962

>  <SCORE.INTER.VDW>
-11.1619

>  <SCORE.INTER.norm>
-0.0770345

>  <SCORE.INTRA>
-2.81965

>  <SCORE.INTRA.DIHEDRAL>
-6.62505

>  <SCORE.INTRA.DIHEDRAL.0>
7.18044

>  <SCORE.INTRA.POLAR>
0

>  <SCORE.INTRA.POLAR.0>
0

>  <SCORE.INTRA.REPUL>
0

>  <SCORE.INTRA.REPUL.0>
0

>  <SCORE.INTRA.SOLV>
1.16177

>  <SCORE.INTRA.SOLV.lig_0>
-72.0615

>  <SCORE.INTRA.VDW>
-0.0880083

>  <SCORE.INTRA.VDW.0>
-1.54792

>  <SCORE.INTRA.norm>
-0.128166

>  <SCORE.RESTR>
0

>  <SCORE.RESTR.CAVITY>
0

>  <SCORE.RESTR.norm>
0

>  <SCORE.SYSTEM>
0

>  <SCORE.SYSTEM.CONST>
0

>  <SCORE.SYSTEM.DIHEDRAL>
0

>  <SCORE.SYSTEM.SOLV>
0

>  <SCORE.SYSTEM.norm>
0

>  <SCORE.heavy>
22

>  <SCORE.norm>
-0.2052

>  <RMSD>
32.630

$$$$
lig.pdb
 OpenBabel11021811523D
libRbt.so/2013.1/901 2013/11/27
 22 23  0  0  0  0  0  0  0  0999 V2000
   10.5883  -18.2947   -4.1660 C   0  0  1  0  0  0  0  0  0  0  0  0
    9.6871  -19.9971   -2.5728 C   0  0  1  0  0  0  0  0  0  0  0  0
   10.1793  -20.6869   -1.1688 C   0  0  1  0  0  0  0  0  0  0  0  0
    9.1860  -21.9166   -0.8587 C   0  0  2  0  0  0  0  0  0  0  0  0
   12.0362  -17.8680   -4.6814 C   0  0  1  0  0  0  0  0  0  0  0  0
   12.5723  -16.6292   -3.8633 C   0  0  2  0  0  0  0  0  0  0  0  0
   11.5731  -15.3937   -4.1032 C   0  0  1  0  0  0  0  0  0  0  0  0
   10.0996  -15.7484   -3.5306 C   0  0  1  0  0  0  0  0  0  0  0  0
    9.0657  -14.6024   -3.7101 C   0  0  0  0  0  0  0  0  0  0  0  0
    7.7129  -21.3094   -0.6508 C   0  0  1  0  0  0  0  0  0  0  0  0
    7.2700  -20.6282   -2.0430 C   0  0  0  0  0  0  0  0  0  0  0  0
    8.2519  -19.4387   -2.4210 C   0  0  2  0  0  0  0  0  0  0  0  0
   12.0146  -14.1904   -3.3900 F   0  0  0  0  0  0  0  0  0  0  0  0
   12.9166  -19.1170   -4.5252 N   0  0  0  0  0  0  0  0  0  0  0  0
    7.7803  -14.8856   -3.1849 N   0  0  0  0  0  0  0  0  0  0  0  0
    6.7321  -22.4054   -0.3708 N   0  0  0  0  0  0  0  0  0  0  0  0
    7.8713  -18.8232   -3.6889 N   0  0  0  0  0  0  0  0  0  0  0  0
   10.4731  -18.8833   -2.9320 O   0  0  0  0  0  0  0  0  0  0  0  0
   11.5629  -21.2168   -1.3715 O   0  0  0  0  0  0  0  0  0  0  0  0
    9.5947  -22.5050    0.3297 O   0  0  0  0  0  0  0  0  0  0  0  0
   13.6355  -16.3552   -4.2875 O   0  0  0  0  0  0  0  0  0  0  0  0
    9.6334  -17.0616   -4.2632 O   0  0  0  0  0  0  0  0  0  0  0  0
  1  5  1  0  0  0  0
  1 18  1  1  0  0  0
  2 18  1  1  0  0  0
  2  3  1  0  0  0  0
  2 12  1  0  0  0  0
  3 19  1  6  0  0  0
  3  4  1  0  0  0  0
  4 20  1  1  0  0  0
  4 10  1  0  0  0  0
  5  6  1  0  0  0  0
  5 14  1  1  0  0  0
  6 21  1  6  0  0  0
  7 13  1  1  0  0  0
  7  6  1  0  0  0  0
  8  9  1  6  0  0  0
  8  7  1  0  0  0  0
 10 16  1  6  0  0  0
 11 10  1  0  0  0  0
 12 17  1  6  0  0  0
 12 11  1  0  0  0  0
 15  9  1  0  0  0  0
 22  8  1  0  0  0  0
 22  1  1  0  0  0  0
M  END
>  <CHROM.1>
-136.78452364,161.22712840,-178.54891745,10.07662474,-18.48921080,-2.79344142
-1.16309773,-0.19850233,2.74827796

>  <Name>
lig.pdb

>  <RI>
0

>  <Rbt.Current_Directory>
/home/itssahil/PROJECTS/Mol_Feturizer/New_Systems/rnas/5bxk

>  <Rbt.Executable>
rbdock ($Id: //depot/dev/client3/rdock/2013.1/src/exe/rbdock.cxx#4 $)

>  <Rbt.Library>
libRbt.so (2013.1, Build901 2013/11/27)

>  <Rbt.Parameter_File>
/export/apps/rDock/src/rDock_2013.1_src/data/scripts/dock_solv.prm

>  <Rbt.Receptor>
prm/blind_docking_80.prm

>  <SCORE>
-2.42274

>  <SCORE.INTER>
-3.94113

>  <SCORE.INTER.CONST>
1

>  <SCORE.INTER.POLAR>
0

>  <SCORE.INTER.ROT>
3

>  <SCORE.INTER.SOLV>
12.6766

>  <SCORE.INTER.VDW>
-12.4529

>  <SCORE.INTER.norm>
-0.179142

>  <SCORE.INTRA>
1.51839

>  <SCORE.INTRA.DIHEDRAL>
0.243249

>  <SCORE.INTRA.DIHEDRAL.0>
7.18044

>  <SCORE.INTRA.POLAR>
0

>  <SCORE.INTRA.POLAR.0>
0

>  <SCORE.INTRA.REPUL>
0

>  <SCORE.INTRA.REPUL.0>
0

>  <SCORE.INTRA.SOLV>
1.4217

>  <SCORE.INTRA.SOLV.lig_0>
-72.0615

>  <SCORE.INTRA.VDW>
0.685914

>  <SCORE.INTRA.VDW.0>
-1.54792

>  <SCORE.INTRA.norm>
0.0690177

>  <SCORE.RESTR>
0

>  <SCORE.RESTR.CAVITY>
0

>  <SCORE.RESTR.norm>
0

>  <SCORE.SYSTEM>
0

>  <SCORE.SYSTEM.CONST>
0

>  <SCORE.SYSTEM.DIHEDRAL>
0

>  <SCORE.SYSTEM.SOLV>
0

>  <SCORE.SYSTEM.norm>
0

>  <SCORE.heavy>
22

>  <SCORE.norm>
-0.110124

>  <RMSD>
32.702

$$$$
lig.pdb
 OpenBabel11021811523D
libRbt.so/2013.1/901 2013/11/27
 22 23  0  0  0  0  0  0  0  0999 V2000
   10.5103  -16.8850   -4.1865 C   0  0  1  0  0  0  0  0  0  0  0  0
    8.2617  -16.2654   -3.2873 C   0  0  1  0  0  0  0  0  0  0  0  0
    8.3983  -14.6635   -3.6105 C   0  0  1  0  0  0  0  0  0  0  0  0
    6.9093  -14.0507   -3.6613 C   0  0  2  0  0  0  0  0  0  0  0  0
   11.7937  -17.8080   -3.9749 C   0  0  1  0  0  0  0  0  0  0  0  0
   12.6771  -17.2640   -2.7854 C   0  0  2  0  0  0  0  0  0  0  0  0
   13.1823  -15.7865   -3.1651 C   0  0  1  0  0  0  0  0  0  0  0  0
   11.9168  -14.7871   -3.3220 C   0  0  1  0  0  0  0  0  0  0  0  0
   12.3122  -13.3275   -3.6793 C   0  0  0  0  0  0  0  0  0  0  0  0
    6.1336  -14.7615   -4.8758 C   0  0  1  0  0  0  0  0  0  0  0  0
    6.0323  -16.3328   -4.5309 C   0  0  0  0  0  0  0  0  0  0  0  0
    7.4802  -16.9754   -4.4186 C   0  0  2  0  0  0  0  0  0  0  0  0
   14.0318  -15.2152   -2.1146 F   0  0  0  0  0  0  0  0  0  0  0  0
   11.2500  -19.2221   -3.7209 N   0  0  0  0  0  0  0  0  0  0  0  0
   13.0878  -13.2029   -4.8587 N   0  0  0  0  0  0  0  0  0  0  0  0
    4.7315  -14.2454   -4.9720 N   0  0  0  0  0  0  0  0  0  0  0  0
    7.4029  -18.3958   -4.0903 N   0  0  0  0  0  0  0  0  0  0  0  0
    9.5114  -16.9165   -3.2464 O   0  0  0  0  0  0  0  0  0  0  0  0
    9.1502  -14.0251   -2.4865 O   0  0  0  0  0  0  0  0  0  0  0  0
    7.0159  -12.6948   -3.9364 O   0  0  0  0  0  0  0  0  0  0  0  0
   13.6083  -17.9759   -2.6786 O   0  0  0  0  0  0  0  0  0  0  0  0
   10.9795  -15.4130   -4.4212 O   0  0  0  0  0  0  0  0  0  0  0  0
  1  5  1  0  0  0  0
  1 18  1  1  0  0  0
  2 18  1  6  0  0  0
  2  3  1  0  0  0  0
  2 12  1  0  0  0  0
  3 19  1  1  0  0  0
  3  4  1  0  0  0  0
  4 20  1  6  0  0  0
  4 10  1  0  0  0  0
  5  6  1  0  0  0  0
  5 14  1  1  0  0  0
  6 21  1  6  0  0  0
  7 13  1  1  0  0  0
  7  6  1  0  0  0  0
  8  9  1  6  0  0  0
  8  7  1  0  0  0  0
 10 16  1  1  0  0  0
 11 10  1  0  0  0  0
 12 17  1  1  0  0  0
 12 11  1  0  0  0  0
 15  9  1  0  0  0  0
 22  8  1  0  0  0  0
 22  1  1  0  0  0  0
M  END
>  <CHROM.1>
-174.82784024,-51.48055082,56.57108547,9.91245531,-15.71210966,-3.69074808
-0.17955006,-0.16723172,-0.01508859

>  <Name>
lig.pdb

>  <RI>
0

>  <Rbt.Current_Directory>
/home/itssahil/PROJECTS/Mol_Feturizer/New_Systems/rnas/5bxk

>  <Rbt.Executable>
rbdock ($Id: //depot/dev/client3/rdock/2013.1/src/exe/rbdock.cxx#4 $)

>  <Rbt.Library>
libRbt.so (2013.1, Build901 2013/11/27)

>  <Rbt.Parameter_File>
/export/apps/rDock/src/rDock_2013.1_src/data/scripts/dock_solv.prm

>  <Rbt.Receptor>
prm/blind_docking_100.prm

>  <SCORE>
-9.07333

>  <SCORE.INTER>
-6.32701

>  <SCORE.INTER.CONST>
1

>  <SCORE.INTER.POLAR>
0

>  <SCORE.INTER.ROT>
3

>  <SCORE.INTER.SOLV>
17.9792

>  <SCORE.INTER.VDW>
-15.8111

>  <SCORE.INTER.norm>
-0.287591

>  <SCORE.INTRA>
-2.74631

>  <SCORE.INTRA.DIHEDRAL>
-6.52473

>  <SCORE.INTRA.DIHEDRAL.0>
7.18044

>  <SCORE.INTRA.POLAR>
0

>  <SCORE.INTRA.POLAR.0>
0

>  <SCORE.INTRA.REPUL>
0

>  <SCORE.INTRA.REPUL.0>
0

>  <SCORE.INTRA.SOLV>
0.919756

>  <SCORE.INTRA.SOLV.lig_0>
-72.0615

>  <SCORE.INTRA.VDW>
0.0561732

>  <SCORE.INTRA.VDW.0>
-1.54792

>  <SCORE.INTRA.norm>
-0.124832

>  <SCORE.RESTR>
0

>  <SCORE.RESTR.CAVITY>
0

>  <SCORE.RESTR.norm>
0

>  <SCORE.SYSTEM>
0

>  <SCORE.SYSTEM.CONST>
0

>  <SCORE.SYSTEM.DIHEDRAL>
0

>  <SCORE.SYSTEM.SOLV>
0

>  <SCORE.SYSTEM.norm>
0

>  <SCORE.heavy>
22

>  <SCORE.norm>
-0.412424

>  <RMSD>
32.755

$$$$
lig.pdb
 OpenBabel11021811523D
libRbt.so/2013.1/901 2013/11/27
 22 23  0  0  0  0  0  0  0  0999 V2000
    9.1790  -15.8605   -3.2413 C   0  0  1  0  0  0  0  0  0  0  0  0
   10.3987  -17.6270   -4.5221 C   0  0  1  0  0  0  0  0  0  0  0  0
   11.8961  -16.9586   -4.5044 C   0  0  1  0  0  0  0  0  0  0  0  0
   12.9613  -18.1509   -4.7012 C   0  0  2  0  0  0  0  0  0  0  0  0
    7.8776  -14.9393   -3.1997 C   0  0  1  0  0  0  0  0  0  0  0  0
    7.9931  -13.7697   -4.2533 C   0  0  2  0  0  0  0  0  0  0  0  0
    9.2601  -12.8612   -3.8638 C   0  0  1  0  0  0  0  0  0  0  0  0
   10.6224  -13.7329   -3.9598 C   0  0  1  0  0  0  0  0  0  0  0  0
   11.9055  -12.9296   -3.6094 C   0  0  0  0  0  0  0  0  0  0  0  0
   12.8192  -19.1406   -3.4432 C   0  0  1  0  0  0  0  0  0  0  0  0
   11.3338  -19.7651   -3.4851 C   0  0  0  0  0  0  0  0  0  0  0  0
   10.2416  -18.6206   -3.3461 C   0  0  2  0  0  0  0  0  0  0  0  0
    9.4254  -11.7335   -4.7871 F   0  0  0  0  0  0  0  0  0  0  0  0
    6.6947  -15.8801   -3.4745 N   0  0  0  0  0  0  0  0  0  0  0  0
   13.1109  -13.6619   -3.7472 N   0  0  0  0  0  0  0  0  0  0  0  0
   13.7765  -20.2848   -3.5695 N   0  0  0  0  0  0  0  0  0  0  0  0
    8.8907  -19.1714   -3.3988 N   0  0  0  0  0  0  0  0  0  0  0  0
    9.3791  -16.6729   -4.3288 O   0  0  0  0  0  0  0  0  0  0  0  0
   11.9984  -16.0173   -5.6619 O   0  0  0  0  0  0  0  0  0  0  0  0
   14.2320  -17.5937   -4.6855 O   0  0  0  0  0  0  0  0  0  0  0  0
    7.0136  -13.1218   -4.1751 O   0  0  0  0  0  0  0  0  0  0  0  0
   10.4384  -14.9673   -3.0003 O   0  0  0  0  0  0  0  0  0  0  0  0
  1  5  1  0  0  0  0
  1 18  1  6  0  0  0
  2 18  1  1  0  0  0
  2  3  1  0  0  0  0
  2 12  1  0  0  0  0
  3 19  1  6  0  0  0
  3  4  1  0  0  0  0
  4 20  1  1  0  0  0
  4 10  1  0  0  0  0
  5  6  1  0  0  0  0
  5 14  1  6  0  0  0
  6 21  1  1  0  0  0
  7 13  1  6  0  0  0
  7  6  1  0  0  0  0
  8  9  1  1  0  0  0
  8  7  1  0  0  0  0
 10 16  1  6  0  0  0
 11 10  1  0  0  0  0
 12 17  1  6  0  0  0
 12 11  1  0  0  0  0
 15  9  1  0  0  0  0
 22  8  1  0  0  0  0
 22  1  1  0  0  0  0
M  END
>  <CHROM.1>
-174.97768477,-61.07910081,-177.29761509,10.51215433,-15.98178400,-3.98072152
2.17442591,0.12644191,-0.09382480

>  <Name>
lig.pdb

>  <RI>
0

>  <Rbt.Current_Directory>
/home/itssahil/PROJECTS/Mol_Feturizer/New_Systems/rnas/5bxk

>  <Rbt.Executable>
rbdock ($Id: //depot/dev/client3/rdock/2013.1/src/exe/rbdock.cxx#4 $)

>  <Rbt.Library>
libRbt.so (2013.1, Build901 2013/11/27)

>  <Rbt.Parameter_File>
/export/apps/rDock/src/rDock_2013.1_src/data/scripts/dock_solv.prm

>  <Rbt.Receptor>
prm/blind_docking_40.prm

>  <SCORE>
-9.57277

>  <SCORE.INTER>
-6.63922

>  <SCORE.INTER.CONST>
1

>  <SCORE.INTER.POLAR>
0

>  <SCORE.INTER.ROT>
3

>  <SCORE.INTER.SOLV>
15.7423

>  <SCORE.INTER.VDW>
-15.2736

>  <SCORE.INTER.norm>
-0.301783

>  <SCORE.INTRA>
-2.93356

>  <SCORE.INTRA.DIHEDRAL>
-6.8932

>  <SCORE.INTRA.DIHEDRAL.0>
7.18044

>  <SCORE.INTRA.POLAR>
0

>  <SCORE.INTRA.POLAR.0>
0

>  <SCORE.INTRA.REPUL>
0

>  <SCORE.INTRA.REPUL.0>
0

>  <SCORE.INTRA.SOLV>
1.45806

>  <SCORE.INTRA.SOLV.lig_0>
-72.0615

>  <SCORE.INTRA.VDW>
-0.215985

>  <SCORE.INTRA.VDW.0>
-1.54792

>  <SCORE.INTRA.norm>
-0.133344

>  <SCORE.RESTR>
0

>  <SCORE.RESTR.CAVITY>
0

>  <SCORE.RESTR.norm>
0

>  <SCORE.SYSTEM>
0

>  <SCORE.SYSTEM.CONST>
0

>  <SCORE.SYSTEM.DIHEDRAL>
0

>  <SCORE.SYSTEM.SOLV>
0

>  <SCORE.SYSTEM.norm>
0

>  <SCORE.heavy>
22

>  <SCORE.norm>
-0.435126

>  <RMSD>
32.768

$$$$
lig.pdb
 OpenBabel11021811523D
libRbt.so/2013.1/901 2013/11/27
 22 23  0  0  0  0  0  0  0  0999 V2000
    8.6463  -15.8955   -3.1890 C   0  0  1  0  0  0  0  0  0  0  0  0
    9.7815  -17.7291   -4.4529 C   0  0  1  0  0  0  0  0  0  0  0  0
   11.3347  -17.2340   -4.2750 C   0  0  1  0  0  0  0  0  0  0  0  0
   12.2783  -18.5289   -4.4421 C   0  0  2  0  0  0  0  0  0  0  0  0
    7.4981  -14.7894   -3.2356 C   0  0  1  0  0  0  0  0  0  0  0  0
    7.9116  -13.6018   -4.1896 C   0  0  2  0  0  0  0  0  0  0  0  0
    9.2402  -12.9175   -3.5988 C   0  0  1  0  0  0  0  0  0  0  0  0
   10.4620  -13.9814   -3.5960 C   0  0  1  0  0  0  0  0  0  0  0  0
   11.7958  -13.4014   -3.0490 C   0  0  0  0  0  0  0  0  0  0  0  0
   11.9183  -19.5479   -3.2529 C   0  0  1  0  0  0  0  0  0  0  0  0
   10.3839  -19.9998   -3.4516 C   0  0  0  0  0  0  0  0  0  0  0  0
    9.4136  -18.7469   -3.3468 C   0  0  2  0  0  0  0  0  0  0  0  0
    9.6805  -11.7852   -4.4208 F   0  0  0  0  0  0  0  0  0  0  0  0
    6.2334  -15.5241   -3.7052 N   0  0  0  0  0  0  0  0  0  0  0  0
   12.8813  -14.3122   -3.0663 N   0  0  0  0  0  0  0  0  0  0  0  0
   12.7539  -20.7858   -3.3564 N   0  0  0  0  0  0  0  0  0  0  0  0
    8.0213  -19.1403   -3.5412 N   0  0  0  0  0  0  0  0  0  0  0  0
    8.8577  -16.6757   -4.2977 O   0  0  0  0  0  0  0  0  0  0  0  0
   11.6411  -16.2628   -5.3700 O   0  0  0  0  0  0  0  0  0  0  0  0
   13.5952  -18.1186   -4.2908 O   0  0  0  0  0  0  0  0  0  0  0  0
    7.0351  -12.8164   -4.1813 O   0  0  0  0  0  0  0  0  0  0  0  0
    9.9833  -15.2179   -2.7473 O   0  0  0  0  0  0  0  0  0  0  0  0
  1  5  1  0  0  0  0
  1 18  1  6  0  0  0
  2 18  1  1  0  0  0
  2  3  1  0  0  0  0
  2 12  1  0  0  0  0
  3 19  1  6  0  0  0
  3  4  1  0  0  0  0
  4 20  1  1  0  0  0
  4 10  1  0  0  0  0
  5  6  1  0  0  0  0
  5 14  1  6  0  0  0
  6 21  1  1  0  0  0
  7 13  1  6  0  0  0
  7  6  1  0  0  0  0
  8  9  1  1  0  0  0
  8  7  1  0  0  0  0
 10 16  1  6  0  0  0
 11 10  1  0  0  0  0
 12 17  1  6  0  0  0
 12 11  1  0  0  0  0
 15  9  1  0  0  0  0
 22  8  1  0  0  0  0
 22  1  1  0  0  0  0
M  END
>  <CHROM.1>
-177.79519540,-61.37238144,-178.74650838,10.06713436,-16.14190797,-3.79884912
2.04825543,0.02831780,-0.02365035

>  <Name>
lig.pdb

>  <RI>
0

>  <Rbt.Current_Directory>
/home/itssahil/PROJECTS/Mol_Feturizer/New_Systems/rnas/5bxk

>  <Rbt.Executable>
rbdock ($Id: //depot/dev/client3/rdock/2013.1/src/exe/rbdock.cxx#4 $)

>  <Rbt.Library>
libRbt.so (2013.1, Build901 2013/11/27)

>  <Rbt.Parameter_File>
/export/apps/rDock/src/rDock_2013.1_src/data/scripts/dock_solv.prm

>  <Rbt.Receptor>
prm/blind_docking_40.prm

>  <SCORE>
-9.66876

>  <SCORE.INTER>
-6.74212

>  <SCORE.INTER.CONST>
1

>  <SCORE.INTER.POLAR>
0

>  <SCORE.INTER.ROT>
3

>  <SCORE.INTER.SOLV>
14.9201

>  <SCORE.INTER.VDW>
-15.0681

>  <SCORE.INTER.norm>
-0.30646

>  <SCORE.INTRA>
-2.92663

>  <SCORE.INTRA.DIHEDRAL>
-7.00672

>  <SCORE.INTRA.DIHEDRAL.0>
7.18044

>  <SCORE.INTRA.POLAR>
0

>  <SCORE.INTRA.POLAR.0>
0

>  <SCORE.INTRA.REPUL>
0

>  <SCORE.INTRA.REPUL.0>
0

>  <SCORE.INTRA.SOLV>
1.53776

>  <SCORE.INTRA.SOLV.lig_0>
-72.0615

>  <SCORE.INTRA.VDW>
-0.192151

>  <SCORE.INTRA.VDW.0>
-1.54792

>  <SCORE.INTRA.norm>
-0.133029

>  <SCORE.RESTR>
0

>  <SCORE.RESTR.CAVITY>
0

>  <SCORE.RESTR.norm>
0

>  <SCORE.SYSTEM>
0

>  <SCORE.SYSTEM.CONST>
0

>  <SCORE.SYSTEM.DIHEDRAL>
0

>  <SCORE.SYSTEM.SOLV>
0

>  <SCORE.SYSTEM.norm>
0

>  <SCORE.heavy>
22

>  <SCORE.norm>
-0.439489

>  <RMSD>
32.774

$$$$
lig.pdb
 OpenBabel11021811523D
libRbt.so/2013.1/901 2013/11/27
 22 23  0  0  0  0  0  0  0  0999 V2000
    9.0665  -15.8656   -3.2377 C   0  0  1  0  0  0  0  0  0  0  0  0
   10.2815  -17.6425   -4.5086 C   0  0  1  0  0  0  0  0  0  0  0  0
   11.7840  -16.9856   -4.5005 C   0  0  1  0  0  0  0  0  0  0  0  0
   12.8397  -18.1883   -4.6856 C   0  0  2  0  0  0  0  0  0  0  0  0
    7.7793  -14.9240   -3.2127 C   0  0  1  0  0  0  0  0  0  0  0  0
    7.9287  -13.7538   -4.2612 C   0  0  2  0  0  0  0  0  0  0  0  0
    9.2041  -12.8665   -3.8507 C   0  0  1  0  0  0  0  0  0  0  0  0
   10.5537  -13.7594   -3.9292 C   0  0  1  0  0  0  0  0  0  0  0  0
   11.8441  -12.9774   -3.5578 C   0  0  0  0  0  0  0  0  0  0  0  0
   12.6918  -19.1629   -3.4166 C   0  0  1  0  0  0  0  0  0  0  0  0
   11.2015  -19.7762   -3.4494 C   0  0  0  0  0  0  0  0  0  0  0  0
   10.1185  -18.6218   -3.3216 C   0  0  2  0  0  0  0  0  0  0  0  0
    9.4008  -11.7393   -4.7684 F   0  0  0  0  0  0  0  0  0  0  0  0
    6.5859  -15.8453   -3.5073 N   0  0  0  0  0  0  0  0  0  0  0  0
   13.0382  -13.7329   -3.6652 N   0  0  0  0  0  0  0  0  0  0  0  0
   13.6399  -20.3159   -3.5317 N   0  0  0  0  0  0  0  0  0  0  0  0
    8.7632  -19.1626   -3.3662 N   0  0  0  0  0  0  0  0  0  0  0  0
    9.2696  -16.6784   -4.3244 O   0  0  0  0  0  0  0  0  0  0  0  0
   11.8919  -16.0580   -5.6684 O   0  0  0  0  0  0  0  0  0  0  0  0
   14.1147  -17.6409   -4.6779 O   0  0  0  0  0  0  0  0  0  0  0  0
    6.9585  -13.0906   -4.1957 O   0  0  0  0  0  0  0  0  0  0  0  0
   10.3362  -14.9932   -2.9759 O   0  0  0  0  0  0  0  0  0  0  0  0
  1  5  1  0  0  0  0
  1 18  1  6  0  0  0
  2 18  1  1  0  0  0
  2  3  1  0  0  0  0
  2 12  1  0  0  0  0
  3 19  1  6  0  0  0
  3  4  1  0  0  0  0
  4 20  1  1  0  0  0
  4 10  1  0  0  0  0
  5  6  1  0  0  0  0
  5 14  1  6  0  0  0
  6 21  1  1  0  0  0
  7 13  1  6  0  0  0
  7  6  1  0  0  0  0
  8  9  1  1  0  0  0
  8  7  1  0  0  0  0
 10 16  1  6  0  0  0
 11 10  1  0  0  0  0
 12 17  1  6  0  0  0
 12 11  1  0  0  0  0
 15  9  1  0  0  0  0
 22  8  1  0  0  0  0
 22  1  1  0  0  0  0
M  END
>  <CHROM.1>
-175.38968436,-62.08083344,-177.98533833,10.41540125,-15.99642182,-3.96526176
2.16571836,0.11999922,-0.09119786

>  <Name>
lig.pdb

>  <RI>
0

>  <Rbt.Current_Directory>
/home/itssahil/PROJECTS/Mol_Feturizer/New_Systems/rnas/5bxk

>  <Rbt.Executable>
rbdock ($Id: //depot/dev/client3/rdock/2013.1/src/exe/rbdock.cxx#4 $)

>  <Rbt.Library>
libRbt.so (2013.1, Build901 2013/11/27)

>  <Rbt.Parameter_File>
/export/apps/rDock/src/rDock_2013.1_src/data/scripts/dock_solv.prm

>  <Rbt.Receptor>
prm/blind_docking_100.prm

>  <SCORE>
-9.63059

>  <SCORE.INTER>
-6.69175

>  <SCORE.INTER.CONST>
1

>  <SCORE.INTER.POLAR>
0

>  <SCORE.INTER.ROT>
3

>  <SCORE.INTER.SOLV>
15.7688

>  <SCORE.INTER.VDW>
-15.3174

>  <SCORE.INTER.norm>
-0.30417

>  <SCORE.INTRA>
-2.93884

>  <SCORE.INTRA.DIHEDRAL>
-6.9081

>  <SCORE.INTRA.DIHEDRAL.0>
7.18044

>  <SCORE.INTRA.POLAR>
0

>  <SCORE.INTRA.POLAR.0>
0

>  <SCORE.INTRA.REPUL>
0

>  <SCORE.INTRA.REPUL.0>
0

>  <SCORE.INTRA.SOLV>
1.43915

>  <SCORE.INTRA.SOLV.lig_0>
-72.0615

>  <SCORE.INTRA.VDW>
-0.204368

>  <SCORE.INTRA.VDW.0>
-1.54792

>  <SCORE.INTRA.norm>
-0.133584

>  <SCORE.RESTR>
0

>  <SCORE.RESTR.CAVITY>
0

>  <SCORE.RESTR.norm>
0

>  <SCORE.SYSTEM>
0

>  <SCORE.SYSTEM.CONST>
0

>  <SCORE.SYSTEM.DIHEDRAL>
0

>  <SCORE.SYSTEM.SOLV>
0

>  <SCORE.SYSTEM.norm>
0

>  <SCORE.heavy>
22

>  <SCORE.norm>
-0.437754

>  <RMSD>
32.781

$$$$
lig.pdb
 OpenBabel11021811523D
libRbt.so/2013.1/901 2013/11/27
 22 23  0  0  0  0  0  0  0  0999 V2000
    8.6556  -15.8914   -3.1985 C   0  0  1  0  0  0  0  0  0  0  0  0
    9.7899  -17.7171   -4.4747 C   0  0  1  0  0  0  0  0  0  0  0  0
   11.3414  -17.2294   -4.2646 C   0  0  1  0  0  0  0  0  0  0  0  0
   12.2845  -18.5230   -4.4433 C   0  0  2  0  0  0  0  0  0  0  0  0
    7.5070  -14.7854   -3.2373 C   0  0  1  0  0  0  0  0  0  0  0  0
    7.9192  -13.5918   -4.1843 C   0  0  2  0  0  0  0  0  0  0  0  0
    9.2481  -12.9107   -3.5905 C   0  0  1  0  0  0  0  0  0  0  0  0
   10.4703  -13.9742   -3.5953 C   0  0  1  0  0  0  0  0  0  0  0  0
   11.8043  -13.3971   -3.0460 C   0  0  0  0  0  0  0  0  0  0  0  0
   11.9051  -19.5642   -3.2796 C   0  0  1  0  0  0  0  0  0  0  0  0
   10.3727  -20.0084   -3.5094 C   0  0  0  0  0  0  0  0  0  0  0  0
    9.4038  -18.7555   -3.3941 C   0  0  2  0  0  0  0  0  0  0  0  0
    9.6872  -11.7732   -4.4059 F   0  0  0  0  0  0  0  0  0  0  0  0
    6.2421  -15.5176   -3.7102 N   0  0  0  0  0  0  0  0  0  0  0  0
   12.8894  -14.3084   -3.0671 N   0  0  0  0  0  0  0  0  0  0  0  0
   12.7394  -20.8019   -3.3952 N   0  0  0  0  0  0  0  0  0  0  0  0
    8.0135  -19.1415   -3.6163 N   0  0  0  0  0  0  0  0  0  0  0  0
    8.8662  -16.6647   -4.3122 O   0  0  0  0  0  0  0  0  0  0  0  0
   11.6658  -16.2377   -5.3359 O   0  0  0  0  0  0  0  0  0  0  0  0
   13.6000  -18.1190   -4.2650 O   0  0  0  0  0  0  0  0  0  0  0  0
    7.0424  -12.8068   -4.1704 O   0  0  0  0  0  0  0  0  0  0  0  0
    9.9928  -15.2161   -2.7539 O   0  0  0  0  0  0  0  0  0  0  0  0
  1  5  1  0  0  0  0
  1 18  1  6  0  0  0
  2 18  1  1  0  0  0
  2  3  1  0  0  0  0
  2 12  1  0  0  0  0
  3 19  1  6  0  0  0
  3  4  1  0  0  0  0
  4 20  1  1  0  0  0
  4 10  1  0  0  0  0
  5  6  1  0  0  0  0
  5 14  1  6  0  0  0
  6 21  1  1  0  0  0
  7 13  1  6  0  0  0
  7  6  1  0  0  0  0
  8  9  1  1  0  0  0
  8  7  1  0  0  0  0
 10 16  1  6  0  0  0
 11 10  1  0  0  0  0
 12 17  1  6  0  0  0
 12 11  1  0  0  0  0
 15  9  1  0  0  0  0
 22  8  1  0  0  0  0
 22  1  1  0  0  0  0
M  END
>  <CHROM.1>
-177.77102085,-60.20838950,-178.87906587,10.07165010,-16.13804711,-3.80666970
2.04390957,0.02226203,-0.01542094

>  <Name>
lig.pdb

>  <RI>
0

>  <Rbt.Current_Directory>
/home/itssahil/PROJECTS/Mol_Feturizer/New_Systems/rnas/5bxk

>  <Rbt.Executable>
rbdock ($Id: //depot/dev/client3/rdock/2013.1/src/exe/rbdock.cxx#4 $)

>  <Rbt.Library>
libRbt.so (2013.1, Build901 2013/11/27)

>  <Rbt.Parameter_File>
/export/apps/rDock/src/rDock_2013.1_src/data/scripts/dock_solv.prm

>  <Rbt.Receptor>
prm/blind_docking_40.prm

>  <SCORE>
-9.66028

>  <SCORE.INTER>
-6.75057

>  <SCORE.INTER.CONST>
1

>  <SCORE.INTER.POLAR>
0

>  <SCORE.INTER.ROT>
3

>  <SCORE.INTER.SOLV>
14.8291

>  <SCORE.INTER.VDW>
-15.0434

>  <SCORE.INTER.norm>
-0.306844

>  <SCORE.INTRA>
-2.9097

>  <SCORE.INTRA.DIHEDRAL>
-7.01645

>  <SCORE.INTRA.DIHEDRAL.0>
7.18044

>  <SCORE.INTRA.POLAR>
0

>  <SCORE.INTRA.POLAR.0>
0

>  <SCORE.INTRA.REPUL>
0

>  <SCORE.INTRA.REPUL.0>
0

>  <SCORE.INTRA.SOLV>
1.58561

>  <SCORE.INTRA.SOLV.lig_0>
-72.0615

>  <SCORE.INTRA.VDW>
-0.19428

>  <SCORE.INTRA.VDW.0>
-1.54792

>  <SCORE.INTRA.norm>
-0.132259

>  <SCORE.RESTR>
0

>  <SCORE.RESTR.CAVITY>
0

>  <SCORE.RESTR.norm>
0

>  <SCORE.SYSTEM>
0

>  <SCORE.SYSTEM.CONST>
0

>  <SCORE.SYSTEM.DIHEDRAL>
0

>  <SCORE.SYSTEM.SOLV>
0

>  <SCORE.SYSTEM.norm>
0

>  <SCORE.heavy>
22

>  <SCORE.norm>
-0.439103

>  <RMSD>
32.782

$$$$
lig.pdb
 OpenBabel11021811523D
libRbt.so/2013.1/901 2013/11/27
 22 23  0  0  0  0  0  0  0  0999 V2000
    8.6573  -15.8856   -3.2004 C   0  0  1  0  0  0  0  0  0  0  0  0
    9.8433  -17.6587   -4.5035 C   0  0  1  0  0  0  0  0  0  0  0  0
   11.3661  -17.0503   -4.4886 C   0  0  1  0  0  0  0  0  0  0  0  0
   12.3830  -18.2843   -4.6839 C   0  0  2  0  0  0  0  0  0  0  0  0
    7.4950  -14.7937   -3.2320 C   0  0  1  0  0  0  0  0  0  0  0  0
    7.8803  -13.6024   -4.1930 C   0  0  2  0  0  0  0  0  0  0  0  0
    9.2085  -12.9010   -3.6218 C   0  0  1  0  0  0  0  0  0  0  0  0
   10.4433  -13.9498   -3.6351 C   0  0  1  0  0  0  0  0  0  0  0  0
   11.7774  -13.3527   -3.1077 C   0  0  0  0  0  0  0  0  0  0  0  0
   12.2030  -19.2650   -3.4238 C   0  0  1  0  0  0  0  0  0  0  0  0
   10.6938  -19.8302   -3.4630 C   0  0  0  0  0  0  0  0  0  0  0  0
    9.6481  -18.6430   -3.3254 C   0  0  2  0  0  0  0  0  0  0  0  0
    9.6232  -11.7644   -4.4511 F   0  0  0  0  0  0  0  0  0  0  0  0
    6.2330  -15.5446   -3.6828 N   0  0  0  0  0  0  0  0  0  0  0  0
   12.8786  -14.2432   -3.1595 N   0  0  0  0  0  0  0  0  0  0  0  0
   13.1139  -20.4466   -3.5486 N   0  0  0  0  0  0  0  0  0  0  0  0
    8.2763  -19.1398   -3.3757 N   0  0  0  0  0  0  0  0  0  0  0  0
    8.8626  -16.6645   -4.3112 O   0  0  0  0  0  0  0  0  0  0  0  0
   11.5045  -16.1161   -5.6481 O   0  0  0  0  0  0  0  0  0  0  0  0
   13.6748  -17.7779   -4.6705 O   0  0  0  0  0  0  0  0  0  0  0  0
    6.9943  -12.8278   -4.1731 O   0  0  0  0  0  0  0  0  0  0  0  0
    9.9920  -15.1911   -2.7784 O   0  0  0  0  0  0  0  0  0  0  0  0
  1  5  1  0  0  0  0
  1 18  1  6  0  0  0
  2 18  1  1  0  0  0
  2  3  1  0  0  0  0
  2 12  1  0  0  0  0
  3 19  1  6  0  0  0
  3  4  1  0  0  0  0
  4 20  1  1  0  0  0
  4 10  1  0  0  0  0
  5  6  1  0  0  0  0
  5 14  1  6  0  0  0
  6 21  1  1  0  0  0
  7 13  1  6  0  0  0
  7  6  1  0  0  0  0
  8  9  1  1  0  0  0
  8  7  1  0  0  0  0
 10 16  1  6  0  0  0
 11 10  1  0  0  0  0
 12 17  1  6  0  0  0
 12 11  1  0  0  0  0
 15  9  1  0  0  0  0
 22  8  1  0  0  0  0
 22  1  1  0  0  0  0
M  END
>  <CHROM.1>
178.53391553,-64.41231840,-177.77828520,10.12651607,-16.04825416,-3.87391936
2.11195565,0.07584744,-0.03028857

>  <Name>
lig.pdb

>  <RI>
0

>  <Rbt.Current_Directory>
/home/itssahil/PROJECTS/Mol_Feturizer/New_Systems/rnas/5bxk

>  <Rbt.Executable>
rbdock ($Id: //depot/dev/client3/rdock/2013.1/src/exe/rbdock.cxx#4 $)

>  <Rbt.Library>
libRbt.so (2013.1, Build901 2013/11/27)

>  <Rbt.Parameter_File>
/export/apps/rDock/src/rDock_2013.1_src/data/scripts/dock_solv.prm

>  <Rbt.Receptor>
prm/blind_docking_100.prm

>  <SCORE>
-9.6712

>  <SCORE.INTER>
-6.78882

>  <SCORE.INTER.CONST>
1

>  <SCORE.INTER.POLAR>
0

>  <SCORE.INTER.ROT>
3

>  <SCORE.INTER.SOLV>
15.8796

>  <SCORE.INTER.VDW>
-15.4191

>  <SCORE.INTER.norm>
-0.308583

>  <SCORE.INTRA>
-2.88239

>  <SCORE.INTRA.DIHEDRAL>
-6.92087

>  <SCORE.INTRA.DIHEDRAL.0>
7.18044

>  <SCORE.INTRA.POLAR>
0

>  <SCORE.INTRA.POLAR.0>
0

>  <SCORE.INTRA.REPUL>
0

>  <SCORE.INTRA.REPUL.0>
0

>  <SCORE.INTRA.SOLV>
1.47539

>  <SCORE.INTRA.SOLV.lig_0>
-72.0615

>  <SCORE.INTRA.VDW>
-0.159645

>  <SCORE.INTRA.VDW.0>
-1.54792

>  <SCORE.INTRA.norm>
-0.131018

>  <SCORE.RESTR>
0

>  <SCORE.RESTR.CAVITY>
0

>  <SCORE.RESTR.norm>
0

>  <SCORE.SYSTEM>
0

>  <SCORE.SYSTEM.CONST>
0

>  <SCORE.SYSTEM.DIHEDRAL>
0

>  <SCORE.SYSTEM.SOLV>
0

>  <SCORE.SYSTEM.norm>
0

>  <SCORE.heavy>
22

>  <SCORE.norm>
-0.4396

>  <RMSD>
32.791

$$$$
lig.pdb
 OpenBabel11021811523D
libRbt.so/2013.1/901 2013/11/27
 22 23  0  0  0  0  0  0  0  0999 V2000
    8.4959  -15.9767   -3.1548 C   0  0  1  0  0  0  0  0  0  0  0  0
    9.6830  -17.7555   -4.4490 C   0  0  1  0  0  0  0  0  0  0  0  0
   11.1978  -17.1275   -4.4537 C   0  0  1  0  0  0  0  0  0  0  0  0
   12.2287  -18.3499   -4.6488 C   0  0  2  0  0  0  0  0  0  0  0  0
    7.4142  -14.8072   -3.2348 C   0  0  1  0  0  0  0  0  0  0  0  0
    7.9195  -13.6493   -4.1810 C   0  0  2  0  0  0  0  0  0  0  0  0
    9.2689  -13.0390   -3.5574 C   0  0  1  0  0  0  0  0  0  0  0  0
   10.4277  -14.1707   -3.5194 C   0  0  1  0  0  0  0  0  0  0  0  0
   11.7776  -13.6651   -2.9392 C   0  0  0  0  0  0  0  0  0  0  0  0
   12.0734  -19.3225   -3.3791 C   0  0  1  0  0  0  0  0  0  0  0  0
   10.5714  -19.9073   -3.3993 C   0  0  0  0  0  0  0  0  0  0  0  0
    9.5118  -18.7325   -3.2612 C   0  0  2  0  0  0  0  0  0  0  0  0
    9.7943  -11.9372   -4.3708 F   0  0  0  0  0  0  0  0  0  0  0  0
    6.1224  -15.4709   -3.7354 N   0  0  0  0  0  0  0  0  0  0  0  0
   12.4733  -12.7595   -3.7783 N   0  0  0  0  0  0  0  0  0  0  0  0
   12.9983  -20.4932   -3.5032 N   0  0  0  0  0  0  0  0  0  0  0  0
    8.1461  -19.2473   -3.2942 N   0  0  0  0  0  0  0  0  0  0  0  0
    8.6914  -16.7724   -4.2553 O   0  0  0  0  0  0  0  0  0  0  0  0
   11.3132  -16.2011   -5.6219 O   0  0  0  0  0  0  0  0  0  0  0  0
   13.5140  -17.8269   -4.6519 O   0  0  0  0  0  0  0  0  0  0  0  0
    7.0891  -12.8153   -4.1981 O   0  0  0  0  0  0  0  0  0  0  0  0
    9.8574  -15.3743   -2.6800 O   0  0  0  0  0  0  0  0  0  0  0  0
  1  5  1  0  0  0  0
  1 18  1  6  0  0  0
  2 18  1  1  0  0  0
  2  3  1  0  0  0  0
  2 12  1  0  0  0  0
  3 19  1  6  0  0  0
  3  4  1  0  0  0  0
  4 20  1  1  0  0  0
  4 10  1  0  0  0  0
  5  6  1  0  0  0  0
  5 14  1  6  0  0  0
  6 21  1  1  0  0  0
  7 13  1  6  0  0  0
  7  6  1  0  0  0  0
  8  9  1  1  0  0  0
  8  7  1  0  0  0  0
 10 16  1  6  0  0  0
 11 10  1  0  0  0  0
 12 17  1  6  0  0  0
 12 11  1  0  0  0  0
 15  9  1  0  0  0  0
 22  8  1  0  0  0  0
 22  1  1  0  0  0  0
M  END
>  <CHROM.1>
172.55814706,-63.60801011,-70.68469467,10.03089206,-16.07178531,-3.85465013
2.03234445,0.09487334,-0.03986688

>  <Name>
lig.pdb

>  <RI>
0

>  <Rbt.Current_Directory>
/home/itssahil/PROJECTS/Mol_Feturizer/New_Systems/rnas/5bxk

>  <Rbt.Executable>
rbdock ($Id: //depot/dev/client3/rdock/2013.1/src/exe/rbdock.cxx#4 $)

>  <Rbt.Library>
libRbt.so (2013.1, Build901 2013/11/27)

>  <Rbt.Parameter_File>
/export/apps/rDock/src/rDock_2013.1_src/data/scripts/dock_solv.prm

>  <Rbt.Receptor>
prm/blind_docking_60.prm

>  <SCORE>
-9.14525

>  <SCORE.INTER>
-6.27252

>  <SCORE.INTER.CONST>
1

>  <SCORE.INTER.POLAR>
0

>  <SCORE.INTER.ROT>
3

>  <SCORE.INTER.SOLV>
17.2523

>  <SCORE.INTER.VDW>
-15.5324

>  <SCORE.INTER.norm>
-0.285114

>  <SCORE.INTRA>
-2.87273

>  <SCORE.INTRA.DIHEDRAL>
-6.32096

>  <SCORE.INTRA.DIHEDRAL.0>
7.18044

>  <SCORE.INTRA.POLAR>
0

>  <SCORE.INTRA.POLAR.0>
0

>  <SCORE.INTRA.REPUL>
0

>  <SCORE.INTRA.REPUL.0>
0

>  <SCORE.INTRA.SOLV>
0.317293

>  <SCORE.INTRA.SOLV.lig_0>
-72.0615

>  <SCORE.INTRA.VDW>
0.129106

>  <SCORE.INTRA.VDW.0>
-1.54792

>  <SCORE.INTRA.norm>
-0.130579

>  <SCORE.RESTR>
0

>  <SCORE.RESTR.CAVITY>
0

>  <SCORE.RESTR.norm>
0

>  <SCORE.SYSTEM>
0

>  <SCORE.SYSTEM.CONST>
0

>  <SCORE.SYSTEM.DIHEDRAL>
0

>  <SCORE.SYSTEM.SOLV>
0

>  <SCORE.SYSTEM.norm>
0

>  <SCORE.heavy>
22

>  <SCORE.norm>
-0.415693

>  <RMSD>
32.811

$$$$
lig.pdb
 OpenBabel11021811523D
libRbt.so/2013.1/901 2013/11/27
 22 23  0  0  0  0  0  0  0  0999 V2000
    8.5133  -15.9659   -3.1659 C   0  0  1  0  0  0  0  0  0  0  0  0
    9.6729  -17.7482   -4.4801 C   0  0  1  0  0  0  0  0  0  0  0  0
   11.2054  -17.1668   -4.4274 C   0  0  1  0  0  0  0  0  0  0  0  0
   12.2042  -18.4136   -4.6343 C   0  0  2  0  0  0  0  0  0  0  0  0
    7.4348  -14.7922   -3.2238 C   0  0  1  0  0  0  0  0  0  0  0  0
    7.9430  -13.6184   -4.1486 C   0  0  2  0  0  0  0  0  0  0  0  0
    9.2943  -13.0234   -3.5144 C   0  0  1  0  0  0  0  0  0  0  0  0
   10.4500  -14.1588   -3.4977 C   0  0  1  0  0  0  0  0  0  0  0  0
   11.8015  -13.6677   -2.9088 C   0  0  0  0  0  0  0  0  0  0  0  0
   11.9872  -19.4188   -3.3996 C   0  0  1  0  0  0  0  0  0  0  0  0
   10.4695  -19.9567   -3.4754 C   0  0  0  0  0  0  0  0  0  0  0  0
    9.4420  -18.7549   -3.3277 C   0  0  2  0  0  0  0  0  0  0  0  0
    9.8224  -11.9082   -4.3074 F   0  0  0  0  0  0  0  0  0  0  0  0
    6.1411  -15.4429   -3.7360 N   0  0  0  0  0  0  0  0  0  0  0  0
   12.4555  -12.6806   -3.6874 N   0  0  0  0  0  0  0  0  0  0  0  0
   12.8799  -20.6129   -3.5365 N   0  0  0  0  0  0  0  0  0  0  0  0
    8.0630  -19.2267   -3.4108 N   0  0  0  0  0  0  0  0  0  0  0  0
    8.7062  -16.7417   -4.2810 O   0  0  0  0  0  0  0  0  0  0  0  0
   11.3784  -16.2096   -5.5633 O   0  0  0  0  0  0  0  0  0  0  0  0
   13.5041  -17.9301   -4.5891 O   0  0  0  0  0  0  0  0  0  0  0  0
    7.1149  -12.7819   -4.1498 O   0  0  0  0  0  0  0  0  0  0  0  0
    9.8766  -15.3762   -2.6806 O   0  0  0  0  0  0  0  0  0  0  0  0
  1  5  1  0  0  0  0
  1 18  1  6  0  0  0
  2 18  1  1  0  0  0
  2  3  1  0  0  0  0
  2 12  1  0  0  0  0
  3 19  1  6  0  0  0
  3  4  1  0  0  0  0
  4 20  1  1  0  0  0
  4 10  1  0  0  0  0
  5  6  1  0  0  0  0
  5 14  1  6  0  0  0
  6 21  1  1  0  0  0
  7 13  1  6  0  0  0
  7  6  1  0  0  0  0
  8  9  1  1  0  0  0
  8  7  1  0  0  0  0
 10 16  1  6  0  0  0
 11 10  1  0  0  0  0
 12 17  1  6  0  0  0
 12 11  1  0  0  0  0
 15  9  1  0  0  0  0
 22  8  1  0  0  0  0
 22  1  1  0  0  0  0
M  END
>  <CHROM.1>
174.39141677,-62.99240957,-66.59363031,10.02295672,-16.07994331,-3.84737834
2.00454581,0.08241192,-0.01954437

>  <Name>
lig.pdb

>  <RI>
0

>  <Rbt.Current_Directory>
/home/itssahil/PROJECTS/Mol_Feturizer/New_Systems/rnas/5bxk

>  <Rbt.Executable>
rbdock ($Id: //depot/dev/client3/rdock/2013.1/src/exe/rbdock.cxx#4 $)

>  <Rbt.Library>
libRbt.so (2013.1, Build901 2013/11/27)

>  <Rbt.Parameter_File>
/export/apps/rDock/src/rDock_2013.1_src/data/scripts/dock_solv.prm

>  <Rbt.Receptor>
prm/blind_docking_60.prm

>  <SCORE>
-9.1351

>  <SCORE.INTER>
-6.08473

>  <SCORE.INTER.CONST>
1

>  <SCORE.INTER.POLAR>
0

>  <SCORE.INTER.ROT>
3

>  <SCORE.INTER.SOLV>
17.4645

>  <SCORE.INTER.VDW>
-15.478

>  <SCORE.INTER.norm>
-0.276579

>  <SCORE.INTRA>
-3.05037

>  <SCORE.INTRA.DIHEDRAL>
-6.69818

>  <SCORE.INTRA.DIHEDRAL.0>
7.18044

>  <SCORE.INTRA.POLAR>
0

>  <SCORE.INTRA.POLAR.0>
0

>  <SCORE.INTRA.REPUL>
0

>  <SCORE.INTRA.REPUL.0>
0

>  <SCORE.INTRA.SOLV>
0.360392

>  <SCORE.INTRA.SOLV.lig_0>
-72.0615

>  <SCORE.INTRA.VDW>
0.118526

>  <SCORE.INTRA.VDW.0>
-1.54792

>  <SCORE.INTRA.norm>
-0.138653

>  <SCORE.RESTR>
0

>  <SCORE.RESTR.CAVITY>
0

>  <SCORE.RESTR.norm>
0

>  <SCORE.SYSTEM>
0

>  <SCORE.SYSTEM.CONST>
0

>  <SCORE.SYSTEM.DIHEDRAL>
0

>  <SCORE.SYSTEM.SOLV>
0

>  <SCORE.SYSTEM.norm>
0

>  <SCORE.heavy>
22

>  <SCORE.norm>
-0.415232

>  <RMSD>
32.818

$$$$
lig.pdb
 OpenBabel11021811523D
libRbt.so/2013.1/901 2013/11/27
 22 23  0  0  0  0  0  0  0  0999 V2000
    9.2249  -15.9831   -3.2637 C   0  0  1  0  0  0  0  0  0  0  0  0
   10.4720  -17.7495   -4.5179 C   0  0  1  0  0  0  0  0  0  0  0  0
   11.9481  -17.0354   -4.5337 C   0  0  1  0  0  0  0  0  0  0  0  0
   13.0470  -18.1982   -4.7215 C   0  0  2  0  0  0  0  0  0  0  0  0
    7.8896  -15.1122   -3.2133 C   0  0  1  0  0  0  0  0  0  0  0  0
    7.9284  -13.9752   -4.3074 C   0  0  2  0  0  0  0  0  0  0  0  0
    9.1689  -13.0057   -3.9858 C   0  0  1  0  0  0  0  0  0  0  0  0
   10.5615  -13.8265   -4.0940 C   0  0  1  0  0  0  0  0  0  0  0  0
   11.8211  -12.9627   -3.8085 C   0  0  0  0  0  0  0  0  0  0  0  0
   12.9519  -19.1664   -3.4426 C   0  0  1  0  0  0  0  0  0  0  0  0
   11.4860  -19.8368   -3.4520 C   0  0  0  0  0  0  0  0  0  0  0  0
   10.3609  -18.7237   -3.3207 C   0  0  2  0  0  0  0  0  0  0  0  0
    9.2628  -11.9042   -4.9499 F   0  0  0  0  0  0  0  0  0  0  0  0
    6.7378  -16.1069   -3.4217 N   0  0  0  0  0  0  0  0  0  0  0  0
   13.0494  -13.6571   -3.9394 N   0  0  0  0  0  0  0  0  0  0  0  0
   13.9423  -20.2830   -3.5594 N   0  0  0  0  0  0  0  0  0  0  0  0
    9.0271  -19.3165   -3.3442 N   0  0  0  0  0  0  0  0  0  0  0  0
    9.4260  -16.8233   -4.3295 O   0  0  0  0  0  0  0  0  0  0  0  0
   12.0063  -16.1147   -5.7107 O   0  0  0  0  0  0  0  0  0  0  0  0
   14.3000  -17.6022   -4.7340 O   0  0  0  0  0  0  0  0  0  0  0  0
    6.9265  -13.3636   -4.2212 O   0  0  0  0  0  0  0  0  0  0  0  0
   10.4542  -15.0341   -3.0897 O   0  0  0  0  0  0  0  0  0  0  0  0
  1  5  1  0  0  0  0
  1 18  1  6  0  0  0
  2 18  1  1  0  0  0
  2  3  1  0  0  0  0
  2 12  1  0  0  0  0
  3 19  1  6  0  0  0
  3  4  1  0  0  0  0
  4 20  1  1  0  0  0
  4 10  1  0  0  0  0
  5  6  1  0  0  0  0
  5 14  1  6  0  0  0
  6 21  1  1  0  0  0
  7 13  1  6  0  0  0
  7  6  1  0  0  0  0
  8  9  1  1  0  0  0
  8  7  1  0  0  0  0
 10 16  1  6  0  0  0
 11 10  1  0  0  0  0
 12 17  1  6  0  0  0
 12 11  1  0  0  0  0
 15  9  1  0  0  0  0
 22  8  1  0  0  0  0
 22  1  1  0  0  0  0
M  END
>  <CHROM.1>
-174.51709002,-60.12408989,-178.16847947,10.53327113,-16.08834164,-4.02849052
2.20838865,0.14322060,-0.12956923

>  <Name>
lig.pdb

>  <RI>
0

>  <Rbt.Current_Directory>
/home/itssahil/PROJECTS/Mol_Feturizer/New_Systems/rnas/5bxk

>  <Rbt.Executable>
rbdock ($Id: //depot/dev/client3/rdock/2013.1/src/exe/rbdock.cxx#4 $)

>  <Rbt.Library>
libRbt.so (2013.1, Build901 2013/11/27)

>  <Rbt.Parameter_File>
/export/apps/rDock/src/rDock_2013.1_src/data/scripts/dock_solv.prm

>  <Rbt.Receptor>
prm/blind_docking_60.prm

>  <SCORE>
-9.42443

>  <SCORE.INTER>
-6.49861

>  <SCORE.INTER.CONST>
1

>  <SCORE.INTER.POLAR>
0

>  <SCORE.INTER.ROT>
3

>  <SCORE.INTER.SOLV>
15.7474

>  <SCORE.INTER.VDW>
-15.1815

>  <SCORE.INTER.norm>
-0.295391

>  <SCORE.INTRA>
-2.92583

>  <SCORE.INTRA.DIHEDRAL>
-6.8906

>  <SCORE.INTRA.DIHEDRAL.0>
7.18044

>  <SCORE.INTRA.POLAR>
0

>  <SCORE.INTRA.POLAR.0>
0

>  <SCORE.INTRA.REPUL>
0

>  <SCORE.INTRA.REPUL.0>
0

>  <SCORE.INTRA.SOLV>
1.48942

>  <SCORE.INTRA.SOLV.lig_0>
-72.0615

>  <SCORE.INTRA.VDW>
-0.225232

>  <SCORE.INTRA.VDW.0>
-1.54792

>  <SCORE.INTRA.norm>
-0.132992

>  <SCORE.RESTR>
0

>  <SCORE.RESTR.CAVITY>
0

>  <SCORE.RESTR.norm>
0

>  <SCORE.SYSTEM>
0

>  <SCORE.SYSTEM.CONST>
0

>  <SCORE.SYSTEM.DIHEDRAL>
0

>  <SCORE.SYSTEM.SOLV>
0

>  <SCORE.SYSTEM.norm>
0

>  <SCORE.heavy>
22

>  <SCORE.norm>
-0.428383

>  <RMSD>
32.820

$$$$
lig.pdb
 OpenBabel11021811523D
libRbt.so/2013.1/901 2013/11/27
 22 23  0  0  0  0  0  0  0  0999 V2000
    9.0461  -15.8936   -3.2848 C   0  0  1  0  0  0  0  0  0  0  0  0
   10.2792  -17.6603   -4.5524 C   0  0  1  0  0  0  0  0  0  0  0  0
   11.7756  -16.9900   -4.5265 C   0  0  1  0  0  0  0  0  0  0  0  0
   12.8437  -18.1816   -4.7116 C   0  0  2  0  0  0  0  0  0  0  0  0
    7.7481  -14.9670   -3.2602 C   0  0  1  0  0  0  0  0  0  0  0  0
    7.8823  -13.7979   -4.3121 C   0  0  2  0  0  0  0  0  0  0  0  0
    9.1479  -12.8947   -3.9058 C   0  0  1  0  0  0  0  0  0  0  0  0
   10.5077  -13.7720   -3.9840 C   0  0  1  0  0  0  0  0  0  0  0  0
   11.7894  -12.9742   -3.6165 C   0  0  0  0  0  0  0  0  0  0  0  0
   12.6940  -19.1670   -3.4513 C   0  0  1  0  0  0  0  0  0  0  0  0
   11.2096  -19.7936   -3.5014 C   0  0  0  0  0  0  0  0  0  0  0  0
   10.1151  -18.6500   -3.3741 C   0  0  2  0  0  0  0  0  0  0  0  0
    9.3301  -11.7677   -4.8267 F   0  0  0  0  0  0  0  0  0  0  0  0
    6.5650  -15.9029   -3.5507 N   0  0  0  0  0  0  0  0  0  0  0  0
   12.9947  -13.7068   -3.7531 N   0  0  0  0  0  0  0  0  0  0  0  0
   13.6535  -20.3105   -3.5668 N   0  0  0  0  0  0  0  0  0  0  0  0
    8.7652  -19.2027   -3.4343 N   0  0  0  0  0  0  0  0  0  0  0  0
    9.2571  -16.7068   -4.3696 O   0  0  0  0  0  0  0  0  0  0  0  0
   11.8849  -16.0526   -5.6865 O   0  0  0  0  0  0  0  0  0  0  0  0
   14.1135  -17.6227   -4.6889 O   0  0  0  0  0  0  0  0  0  0  0  0
    6.9046  -13.1459   -4.2468 O   0  0  0  0  0  0  0  0  0  0  0  0
   10.3059  -15.0058   -3.0271 O   0  0  0  0  0  0  0  0  0  0  0  0
  1  5  1  0  0  0  0
  1 18  1  6  0  0  0
  2 18  1  1  0  0  0
  2  3  1  0  0  0  0
  2 12  1  0  0  0  0
  3 19  1  6  0  0  0
  3  4  1  0  0  0  0
  4 20  1  1  0  0  0
  4 10  1  0  0  0  0
  5  6  1  0  0  0  0
  5 14  1  6  0  0  0
  6 21  1  1  0  0  0
  7 13  1  6  0  0  0
  7  6  1  0  0  0  0
  8  9  1  1  0  0  0
  8  7  1  0  0  0  0
 10 16  1  6  0  0  0
 11 10  1  0  0  0  0
 12 17  1  6  0  0  0
 12 11  1  0  0  0  0
 15  9  1  0  0  0  0
 22  8  1  0  0  0  0
 22  1  1  0  0  0  0
M  END
>  <CHROM.1>
-175.33578166,-61.28724611,-176.61650987,10.39282436,-16.01393164,-4.01147665
2.17358065,0.11692344,-0.09411676

>  <Name>
lig.pdb

>  <RI>
0

>  <Rbt.Current_Directory>
/home/itssahil/PROJECTS/Mol_Feturizer/New_Systems/rnas/5bxk

>  <Rbt.Executable>
rbdock ($Id: //depot/dev/client3/rdock/2013.1/src/exe/rbdock.cxx#4 $)

>  <Rbt.Library>
libRbt.so (2013.1, Build901 2013/11/27)

>  <Rbt.Parameter_File>
/export/apps/rDock/src/rDock_2013.1_src/data/scripts/dock_solv.prm

>  <Rbt.Receptor>
prm/blind_docking_40.prm

>  <SCORE>
-9.52331

>  <SCORE.INTER>
-6.59239

>  <SCORE.INTER.CONST>
1

>  <SCORE.INTER.POLAR>
0

>  <SCORE.INTER.ROT>
3

>  <SCORE.INTER.SOLV>
15.6809

>  <SCORE.INTER.VDW>
-15.2219

>  <SCORE.INTER.norm>
-0.299654

>  <SCORE.INTRA>
-2.93091

>  <SCORE.INTRA.DIHEDRAL>
-6.89201

>  <SCORE.INTRA.DIHEDRAL.0>
7.18044

>  <SCORE.INTRA.POLAR>
0

>  <SCORE.INTRA.POLAR.0>
0

>  <SCORE.INTRA.REPUL>
0

>  <SCORE.INTRA.REPUL.0>
0

>  <SCORE.INTRA.SOLV>
1.45496

>  <SCORE.INTRA.SOLV.lig_0>
-72.0615

>  <SCORE.INTRA.VDW>
-0.212387

>  <SCORE.INTRA.VDW.0>
-1.54792

>  <SCORE.INTRA.norm>
-0.133223

>  <SCORE.RESTR>
0

>  <SCORE.RESTR.CAVITY>
0

>  <SCORE.RESTR.norm>
0

>  <SCORE.SYSTEM>
0

>  <SCORE.SYSTEM.CONST>
0

>  <SCORE.SYSTEM.DIHEDRAL>
0

>  <SCORE.SYSTEM.SOLV>
0

>  <SCORE.SYSTEM.norm>
0

>  <SCORE.heavy>
22

>  <SCORE.norm>
-0.432878

>  <RMSD>
32.831

$$$$
lig.pdb
 OpenBabel11021811523D
libRbt.so/2013.1/901 2013/11/27
 22 23  0  0  0  0  0  0  0  0999 V2000
   11.6336  -18.9280   -3.9981 C   0  0  1  0  0  0  0  0  0  0  0  0
   10.4281  -20.3544   -2.3366 C   0  0  1  0  0  0  0  0  0  0  0  0
    9.9880  -21.5108   -3.4129 C   0  0  1  0  0  0  0  0  0  0  0  0
    8.7747  -22.3448   -2.7592 C   0  0  2  0  0  0  0  0  0  0  0  0
   12.8719  -17.9473   -4.2193 C   0  0  1  0  0  0  0  0  0  0  0  0
   12.7038  -16.6388   -3.3527 C   0  0  2  0  0  0  0  0  0  0  0  0
   11.3729  -15.8792   -3.8365 C   0  0  1  0  0  0  0  0  0  0  0  0
   10.0719  -16.8063   -3.5671 C   0  0  1  0  0  0  0  0  0  0  0  0
    8.7326  -16.1453   -3.9958 C   0  0  0  0  0  0  0  0  0  0  0  0
    9.3354  -23.0566   -1.4321 C   0  0  1  0  0  0  0  0  0  0  0  0
    9.7712  -21.8920   -0.4064 C   0  0  0  0  0  0  0  0  0  0  0  0
   10.9338  -21.0060   -1.0272 C   0  0  2  0  0  0  0  0  0  0  0  0
   11.1550  -14.6351   -3.0907 F   0  0  0  0  0  0  0  0  0  0  0  0
   14.1184  -18.7616   -3.8414 N   0  0  0  0  0  0  0  0  0  0  0  0
    8.4271  -14.9430   -3.3107 N   0  0  0  0  0  0  0  0  0  0  0  0
    8.2501  -23.8420   -0.7637 N   0  0  0  0  0  0  0  0  0  0  0  0
   11.3269  -19.9368   -0.1143 N   0  0  0  0  0  0  0  0  0  0  0  0
   11.5094  -19.5742   -2.7941 O   0  0  0  0  0  0  0  0  0  0  0  0
    9.5001  -20.8305   -4.6521 O   0  0  0  0  0  0  0  0  0  0  0  0
    8.3974  -23.3273   -3.6634 O   0  0  0  0  0  0  0  0  0  0  0  0
   13.6377  -15.9527   -3.5586 O   0  0  0  0  0  0  0  0  0  0  0  0
   10.3145  -18.1601   -4.3331 O   0  0  0  0  0  0  0  0  0  0  0  0
  1  5  1  0  0  0  0
  1 18  1  1  0  0  0
  2 18  1  6  0  0  0
  2  3  1  0  0  0  0
  2 12  1  0  0  0  0
  3 19  1  6  0  0  0
  3  4  1  0  0  0  0
  4 20  1  6  0  0  0
  4 10  1  0  0  0  0
  5  6  1  0  0  0  0
  5 14  1  1  0  0  0
  6 21  1  6  0  0  0
  7 13  1  1  0  0  0
  7  6  1  0  0  0  0
  8  9  1  6  0  0  0
  8  7  1  0  0  0  0
 10 16  1  1  0  0  0
 11 10  1  0  0  0  0
 12 17  1  1  0  0  0
 12 11  1  0  0  0  0
 15  9  1  0  0  0  0
 22  8  1  0  0  0  0
 22  1  1  0  0  0  0
M  END
>  <CHROM.1>
172.15998799,51.34036245,-61.43755887,10.60672523,-19.13444459,-2.95839979
-1.24814321,0.10687565,2.85849112

>  <Name>
lig.pdb

>  <RI>
0

>  <Rbt.Current_Directory>
/home/itssahil/PROJECTS/Mol_Feturizer/New_Systems/rnas/5bxk

>  <Rbt.Executable>
rbdock ($Id: //depot/dev/client3/rdock/2013.1/src/exe/rbdock.cxx#4 $)

>  <Rbt.Library>
libRbt.so (2013.1, Build901 2013/11/27)

>  <Rbt.Parameter_File>
/export/apps/rDock/src/rDock_2013.1_src/data/scripts/dock_solv.prm

>  <Rbt.Receptor>
prm/blind_docking_80.prm

>  <SCORE>
-5.06066

>  <SCORE.INTER>
-1.6841

>  <SCORE.INTER.CONST>
1

>  <SCORE.INTER.POLAR>
0

>  <SCORE.INTER.ROT>
3

>  <SCORE.INTER.SOLV>
15.4167

>  <SCORE.INTER.VDW>
-11.8616

>  <SCORE.INTER.norm>
-0.0765501

>  <SCORE.INTRA>
-3.37655

>  <SCORE.INTRA.DIHEDRAL>
-6.38617

>  <SCORE.INTRA.DIHEDRAL.0>
7.18044

>  <SCORE.INTRA.POLAR>
0

>  <SCORE.INTRA.POLAR.0>
0

>  <SCORE.INTRA.REPUL>
0

>  <SCORE.INTRA.REPUL.0>
0

>  <SCORE.INTRA.SOLV>
-0.803579

>  <SCORE.INTRA.SOLV.lig_0>
-72.0615

>  <SCORE.INTRA.VDW>
0.21832

>  <SCORE.INTRA.VDW.0>
-1.54792

>  <SCORE.INTRA.norm>
-0.15348

>  <SCORE.RESTR>
0

>  <SCORE.RESTR.CAVITY>
0

>  <SCORE.RESTR.norm>
0

>  <SCORE.SYSTEM>
0

>  <SCORE.SYSTEM.CONST>
0

>  <SCORE.SYSTEM.DIHEDRAL>
0

>  <SCORE.SYSTEM.SOLV>
0

>  <SCORE.SYSTEM.norm>
0

>  <SCORE.heavy>
22

>  <SCORE.norm>
-0.23003

>  <RMSD>
32.855

$$$$
lig.pdb
 OpenBabel11021811523D
libRbt.so/2013.1/901 2013/11/27
 22 23  0  0  0  0  0  0  0  0999 V2000
   13.3539  -20.4384   -3.7456 C   0  0  1  0  0  0  0  0  0  0  0  0
   11.4196  -21.0967   -2.3055 C   0  0  1  0  0  0  0  0  0  0  0  0
   11.0955  -22.5735   -2.9407 C   0  0  1  0  0  0  0  0  0  0  0  0
    9.5679  -22.9329   -2.5766 C   0  0  2  0  0  0  0  0  0  0  0  0
   14.8897  -20.0080   -3.7592 C   0  0  1  0  0  0  0  0  0  0  0  0
   15.0601  -18.5458   -3.1898 C   0  0  2  0  0  0  0  0  0  0  0  0
   14.2502  -17.5350   -4.1408 C   0  0  1  0  0  0  0  0  0  0  0  0
   12.6684  -17.8839   -4.1076 C   0  0  1  0  0  0  0  0  0  0  0  0
   11.8018  -16.9465   -4.9935 C   0  0  0  0  0  0  0  0  0  0  0  0
    9.4587  -23.0205   -0.9759 C   0  0  1  0  0  0  0  0  0  0  0  0
    9.7979  -21.5585   -0.3877 C   0  0  0  0  0  0  0  0  0  0  0  0
   11.2811  -21.1341   -0.7647 C   0  0  2  0  0  0  0  0  0  0  0  0
   14.3759  -16.1449   -3.6897 F   0  0  0  0  0  0  0  0  0  0  0  0
   15.6244  -21.0671   -2.9236 N   0  0  0  0  0  0  0  0  0  0  0  0
   11.7718  -15.5967   -4.5632 N   0  0  0  0  0  0  0  0  0  0  0  0
    8.0546  -23.3398   -0.5660 N   0  0  0  0  0  0  0  0  0  0  0  0
   11.5958  -19.8042   -0.2514 N   0  0  0  0  0  0  0  0  0  0  0  0
   12.7482  -20.6878   -2.5400 O   0  0  0  0  0  0  0  0  0  0  0  0
   11.2337  -22.4806   -4.4268 O   0  0  0  0  0  0  0  0  0  0  0  0
    9.2860  -24.1829   -3.1092 O   0  0  0  0  0  0  0  0  0  0  0  0
   16.2060  -18.2797   -3.2286 O   0  0  0  0  0  0  0  0  0  0  0  0
   12.5271  -19.3871   -4.5537 O   0  0  0  0  0  0  0  0  0  0  0  0
  1  5  1  0  0  0  0
  1 18  1  1  0  0  0
  2 18  1  1  0  0  0
  2  3  1  0  0  0  0
  2 12  1  0  0  0  0
  3 19  1  6  0  0  0
  3  4  1  0  0  0  0
  4 20  1  6  0  0  0
  4 10  1  0  0  0  0
  5  6  1  0  0  0  0
  5 14  1  1  0  0  0
  6 21  1  6  0  0  0
  7 13  1  1  0  0  0
  7  6  1  0  0  0  0
  8  9  1  6  0  0  0
  8  7  1  0  0  0  0
 10 16  1  6  0  0  0
 11 10  1  0  0  0  0
 12 17  1  6  0  0  0
 12 11  1  0  0  0  0
 15  9  1  0  0  0  0
 22  8  1  0  0  0  0
 22  1  1  0  0  0  0
M  END
>  <CHROM.1>
-178.91748833,63.50772712,-65.56683289,12.22273030,-20.16177486,-2.93278469
-0.90078913,-0.11928897,2.84873520

>  <Name>
lig.pdb

>  <RI>
0

>  <Rbt.Current_Directory>
/home/itssahil/PROJECTS/Mol_Feturizer/New_Systems/rnas/5bxk

>  <Rbt.Executable>
rbdock ($Id: //depot/dev/client3/rdock/2013.1/src/exe/rbdock.cxx#4 $)

>  <Rbt.Library>
libRbt.so (2013.1, Build901 2013/11/27)

>  <Rbt.Parameter_File>
/export/apps/rDock/src/rDock_2013.1_src/data/scripts/dock_solv.prm

>  <Rbt.Receptor>
prm/blind_docking_100.prm

>  <SCORE>
-5.64912

>  <SCORE.INTER>
-1.85256

>  <SCORE.INTER.CONST>
1

>  <SCORE.INTER.POLAR>
0

>  <SCORE.INTER.ROT>
3

>  <SCORE.INTER.SOLV>
13.6463

>  <SCORE.INTER.VDW>
-11.3838

>  <SCORE.INTER.norm>
-0.0842075

>  <SCORE.INTRA>
-3.79656

>  <SCORE.INTRA.DIHEDRAL>
-6.86873

>  <SCORE.INTRA.DIHEDRAL.0>
7.18044

>  <SCORE.INTRA.POLAR>
0

>  <SCORE.INTRA.POLAR.0>
0

>  <SCORE.INTRA.REPUL>
0

>  <SCORE.INTRA.REPUL.0>
0

>  <SCORE.INTRA.SOLV>
-0.88711

>  <SCORE.INTRA.SOLV.lig_0>
-72.0615

>  <SCORE.INTRA.VDW>
0.0813632

>  <SCORE.INTRA.VDW.0>
-1.54792

>  <SCORE.INTRA.norm>
-0.172571

>  <SCORE.RESTR>
0

>  <SCORE.RESTR.CAVITY>
0

>  <SCORE.RESTR.norm>
0

>  <SCORE.SYSTEM>
0

>  <SCORE.SYSTEM.CONST>
0

>  <SCORE.SYSTEM.DIHEDRAL>
0

>  <SCORE.SYSTEM.SOLV>
0

>  <SCORE.SYSTEM.norm>
0

>  <SCORE.heavy>
22

>  <SCORE.norm>
-0.256778

>  <RMSD>
32.865

$$$$
lig.pdb
 OpenBabel11021811523D
libRbt.so/2013.1/901 2013/11/27
 22 23  0  0  0  0  0  0  0  0999 V2000
    9.2739  -15.4738   -3.2851 C   0  0  1  0  0  0  0  0  0  0  0  0
    9.0221  -17.8098   -4.1383 C   0  0  1  0  0  0  0  0  0  0  0  0
   10.5517  -18.2703   -3.7674 C   0  0  1  0  0  0  0  0  0  0  0  0
   10.5672  -19.8790   -3.6855 C   0  0  2  0  0  0  0  0  0  0  0  0
    8.9297  -13.9393   -3.5512 C   0  0  1  0  0  0  0  0  0  0  0  0
    9.8075  -13.3719   -4.7339 C   0  0  2  0  0  0  0  0  0  0  0  0
   11.3540  -13.4698   -4.3081 C   0  0  1  0  0  0  0  0  0  0  0  0
   11.7769  -15.0190   -4.0941 C   0  0  1  0  0  0  0  0  0  0  0  0
   13.2648  -15.2116   -3.6897 C   0  0  0  0  0  0  0  0  0  0  0  0
    9.5889  -20.3130   -2.4869 C   0  0  1  0  0  0  0  0  0  0  0  0
    8.1012  -19.8316   -2.8790 C   0  0  0  0  0  0  0  0  0  0  0  0
    8.0444  -18.2511   -3.0228 C   0  0  2  0  0  0  0  0  0  0  0  0
   12.2398  -12.9401   -5.3504 F   0  0  0  0  0  0  0  0  0  0  0  0
    7.4231  -13.8979   -3.8484 N   0  0  0  0  0  0  0  0  0  0  0  0
   13.6103  -14.6413   -2.4392 N   0  0  0  0  0  0  0  0  0  0  0  0
    9.5456  -21.8044   -2.3634 N   0  0  0  0  0  0  0  0  0  0  0  0
    6.7055  -17.8029   -3.3938 N   0  0  0  0  0  0  0  0  0  0  0  0
    8.8820  -16.4089   -4.2095 O   0  0  0  0  0  0  0  0  0  0  0  0
   11.4516  -17.8298   -4.8775 O   0  0  0  0  0  0  0  0  0  0  0  0
   11.8584  -20.2771   -3.3699 O   0  0  0  0  0  0  0  0  0  0  0  0
    9.5176  -12.2408   -4.8818 O   0  0  0  0  0  0  0  0  0  0  0  0
   10.8053  -15.6069   -3.0038 O   0  0  0  0  0  0  0  0  0  0  0  0
  1  5  1  0  0  0  0
  1 18  1  6  0  0  0
  2 18  1  1  0  0  0
  2  3  1  0  0  0  0
  2 12  1  0  0  0  0
  3 19  1  6  0  0  0
  3  4  1  0  0  0  0
  4 20  1  1  0  0  0
  4 10  1  0  0  0  0
  5  6  1  0  0  0  0
  5 14  1  6  0  0  0
  6 21  1  1  0  0  0
  7 13  1  6  0  0  0
  7  6  1  0  0  0  0
  8  9  1  1  0  0  0
  8  7  1  0  0  0  0
 10 16  1  6  0  0  0
 11 10  1  0  0  0  0
 12 17  1  6  0  0  0
 12 11  1  0  0  0  0
 15  9  1  0  0  0  0
 22  8  1  0  0  0  0
 22  1  1  0  0  0  0
M  END
>  <CHROM.1>
-176.45334007,-50.53117220,63.55934784,10.15899410,-16.49771665,-3.73683123
1.36460495,0.02041396,-0.18605000

>  <Name>
lig.pdb

>  <RI>
0

>  <Rbt.Current_Directory>
/home/itssahil/PROJECTS/Mol_Feturizer/New_Systems/rnas/5bxk

>  <Rbt.Executable>
rbdock ($Id: //depot/dev/client3/rdock/2013.1/src/exe/rbdock.cxx#4 $)

>  <Rbt.Library>
libRbt.so (2013.1, Build901 2013/11/27)

>  <Rbt.Parameter_File>
/export/apps/rDock/src/rDock_2013.1_src/data/scripts/dock_solv.prm

>  <Rbt.Receptor>
prm/blind_docking_100.prm

>  <SCORE>
-6.23152

>  <SCORE.INTER>
-3.48012

>  <SCORE.INTER.CONST>
1

>  <SCORE.INTER.POLAR>
0

>  <SCORE.INTER.ROT>
3

>  <SCORE.INTER.SOLV>
16.3826

>  <SCORE.INTER.VDW>
-13.381

>  <SCORE.INTER.norm>
-0.158187

>  <SCORE.INTRA>
-2.7514

>  <SCORE.INTRA.DIHEDRAL>
-6.50555

>  <SCORE.INTRA.DIHEDRAL.0>
7.18044

>  <SCORE.INTRA.POLAR>
0

>  <SCORE.INTRA.POLAR.0>
0

>  <SCORE.INTRA.REPUL>
0

>  <SCORE.INTRA.REPUL.0>
0

>  <SCORE.INTRA.SOLV>
0.795097

>  <SCORE.INTRA.SOLV.lig_0>
-72.0615

>  <SCORE.INTRA.VDW>
0.103823

>  <SCORE.INTRA.VDW.0>
-1.54792

>  <SCORE.INTRA.norm>
-0.125064

>  <SCORE.RESTR>
0

>  <SCORE.RESTR.CAVITY>
0

>  <SCORE.RESTR.norm>
0

>  <SCORE.SYSTEM>
0

>  <SCORE.SYSTEM.CONST>
0

>  <SCORE.SYSTEM.DIHEDRAL>
0

>  <SCORE.SYSTEM.SOLV>
0

>  <SCORE.SYSTEM.norm>
0

>  <SCORE.heavy>
22

>  <SCORE.norm>
-0.283251

>  <RMSD>
32.874

$$$$
lig.pdb
 OpenBabel11021811523D
libRbt.so/2013.1/901 2013/11/27
 22 23  0  0  0  0  0  0  0  0999 V2000
    8.5370  -17.3907   -3.2832 C   0  0  1  0  0  0  0  0  0  0  0  0
   10.6425  -18.1224   -4.4144 C   0  0  1  0  0  0  0  0  0  0  0  0
   11.4989  -16.7387   -4.2114 C   0  0  1  0  0  0  0  0  0  0  0  0
   13.0620  -17.1195   -4.2948 C   0  0  2  0  0  0  0  0  0  0  0  0
    6.9460  -17.3415   -3.3857 C   0  0  1  0  0  0  0  0  0  0  0  0
    6.4923  -16.2599   -4.4419 C   0  0  2  0  0  0  0  0  0  0  0  0
    7.0050  -14.8206   -3.9442 C   0  0  1  0  0  0  0  0  0  0  0  0
    8.6240  -14.7927   -3.8907 C   0  0  1  0  0  0  0  0  0  0  0  0
    9.2117  -13.4305   -3.4285 C   0  0  0  0  0  0  0  0  0  0  0  0
   13.3845  -18.1139   -3.0744 C   0  0  1  0  0  0  0  0  0  0  0  0
   12.5156  -19.4529   -3.2995 C   0  0  0  0  0  0  0  0  0  0  0  0
   10.9625  -19.1222   -3.2773 C   0  0  2  0  0  0  0  0  0  0  0  0
    6.6038  -13.7518   -4.8652 F   0  0  0  0  0  0  0  0  0  0  0  0
    6.5105  -18.7662   -3.7604 N   0  0  0  0  0  0  0  0  0  0  0  0
   10.6241  -13.3453   -3.5065 N   0  0  0  0  0  0  0  0  0  0  0  0
   14.8252  -18.5203   -3.1000 N   0  0  0  0  0  0  0  0  0  0  0  0
   10.1640  -20.3245   -3.4963 N   0  0  0  0  0  0  0  0  0  0  0  0
    9.2509  -17.9133   -4.3319 O   0  0  0  0  0  0  0  0  0  0  0  0
   11.1615  -15.8141   -5.3373 O   0  0  0  0  0  0  0  0  0  0  0  0
   13.7942  -15.9536   -4.1219 O   0  0  0  0  0  0  0  0  0  0  0  0
    5.3157  -16.2627   -4.4717 O   0  0  0  0  0  0  0  0  0  0  0  0
    9.0654  -15.9623   -2.9337 O   0  0  0  0  0  0  0  0  0  0  0  0
  1  5  1  0  0  0  0
  1 18  1  6  0  0  0
  2 18  1  1  0  0  0
  2  3  1  0  0  0  0
  2 12  1  0  0  0  0
  3 19  1  6  0  0  0
  3  4  1  0  0  0  0
  4 20  1  1  0  0  0
  4 10  1  0  0  0  0
  5  6  1  0  0  0  0
  5 14  1  6  0  0  0
  6 21  1  1  0  0  0
  7 13  1  6  0  0  0
  7  6  1  0  0  0  0
  8  9  1  1  0  0  0
  8  7  1  0  0  0  0
 10 16  1  6  0  0  0
 11 10  1  0  0  0  0
 12 17  1  6  0  0  0
 12 11  1  0  0  0  0
 15  9  1  0  0  0  0
 22  8  1  0  0  0  0
 22  1  1  0  0  0  0
M  END
>  <CHROM.1>
-175.90515501,-58.57367463,-173.88863523,9.77596130,-16.71979185,-3.88702403
2.74668121,-0.04095342,-0.09958884

>  <Name>
lig.pdb

>  <RI>
0

>  <Rbt.Current_Directory>
/home/itssahil/PROJECTS/Mol_Feturizer/New_Systems/rnas/5bxk

>  <Rbt.Executable>
rbdock ($Id: //depot/dev/client3/rdock/2013.1/src/exe/rbdock.cxx#4 $)

>  <Rbt.Library>
libRbt.so (2013.1, Build901 2013/11/27)

>  <Rbt.Parameter_File>
/export/apps/rDock/src/rDock_2013.1_src/data/scripts/dock_solv.prm

>  <Rbt.Receptor>
prm/blind_docking_80.prm

>  <SCORE>
-7.97304

>  <SCORE.INTER>
-5.11705

>  <SCORE.INTER.CONST>
1

>  <SCORE.INTER.POLAR>
0

>  <SCORE.INTER.ROT>
3

>  <SCORE.INTER.SOLV>
16.4167

>  <SCORE.INTER.VDW>
-14.4836

>  <SCORE.INTER.norm>
-0.232593

>  <SCORE.INTRA>
-2.85599

>  <SCORE.INTRA.DIHEDRAL>
-6.82043

>  <SCORE.INTRA.DIHEDRAL.0>
7.18044

>  <SCORE.INTRA.POLAR>
0

>  <SCORE.INTRA.POLAR.0>
0

>  <SCORE.INTRA.REPUL>
0

>  <SCORE.INTRA.REPUL.0>
0

>  <SCORE.INTRA.SOLV>
1.53607

>  <SCORE.INTRA.SOLV.lig_0>
-72.0615

>  <SCORE.INTRA.VDW>
-0.213812

>  <SCORE.INTRA.VDW.0>
-1.54792

>  <SCORE.INTRA.norm>
-0.129818

>  <SCORE.RESTR>
0

>  <SCORE.RESTR.CAVITY>
0

>  <SCORE.RESTR.norm>
0

>  <SCORE.SYSTEM>
0

>  <SCORE.SYSTEM.CONST>
0

>  <SCORE.SYSTEM.DIHEDRAL>
0

>  <SCORE.SYSTEM.SOLV>
0

>  <SCORE.SYSTEM.norm>
0

>  <SCORE.heavy>
22

>  <SCORE.norm>
-0.362411

>  <RMSD>
32.887

$$$$
lig.pdb
 OpenBabel11021811523D
libRbt.so/2013.1/901 2013/11/27
 22 23  0  0  0  0  0  0  0  0999 V2000
   10.1618  -17.2234   -4.1827 C   0  0  1  0  0  0  0  0  0  0  0  0
    7.9119  -16.5686   -3.3123 C   0  0  1  0  0  0  0  0  0  0  0  0
    8.0872  -14.9529   -3.5312 C   0  0  1  0  0  0  0  0  0  0  0  0
    6.6116  -14.3112   -3.6078 C   0  0  2  0  0  0  0  0  0  0  0  0
   11.4574  -18.1164   -3.9220 C   0  0  1  0  0  0  0  0  0  0  0  0
   12.3116  -17.5200   -2.7363 C   0  0  2  0  0  0  0  0  0  0  0  0
   12.7972  -16.0462   -3.1540 C   0  0  1  0  0  0  0  0  0  0  0  0
   11.5173  -15.0750   -3.3622 C   0  0  1  0  0  0  0  0  0  0  0  0
   11.8932  -13.6203   -3.7587 C   0  0  0  0  0  0  0  0  0  0  0  0
    5.8786  -14.9335   -4.8953 C   0  0  1  0  0  0  0  0  0  0  0  0
    5.7379  -16.5206   -4.6513 C   0  0  0  0  0  0  0  0  0  0  0  0
    7.1694  -17.1950   -4.5169 C   0  0  2  0  0  0  0  0  0  0  0  0
   13.6193  -15.4275   -2.1086 F   0  0  0  0  0  0  0  0  0  0  0  0
   10.9342  -19.5314   -3.6325 N   0  0  0  0  0  0  0  0  0  0  0  0
   12.6376  -13.5145   -4.9598 N   0  0  0  0  0  0  0  0  0  0  0  0
    4.4902  -14.3872   -5.0193 N   0  0  0  0  0  0  0  0  0  0  0  0
    7.0558  -18.6309   -4.2793 N   0  0  0  0  0  0  0  0  0  0  0  0
    9.1483  -17.2436   -3.2580 O   0  0  0  0  0  0  0  0  0  0  0  0
    8.7994  -14.3971   -2.3395 O   0  0  0  0  0  0  0  0  0  0  0  0
    6.7511  -12.9434   -3.7951 O   0  0  0  0  0  0  0  0  0  0  0  0
   13.2531  -18.2115   -2.5925 O   0  0  0  0  0  0  0  0  0  0  0  0
   10.6091  -15.7513   -4.4559 O   0  0  0  0  0  0  0  0  0  0  0  0
  1  5  1  0  0  0  0
  1 18  1  1  0  0  0
  2 18  1  6  0  0  0
  2  3  1  0  0  0  0
  2 12  1  0  0  0  0
  3 19  1  1  0  0  0
  3  4  1  0  0  0  0
  4 20  1  6  0  0  0
  4 10  1  0  0  0  0
  5  6  1  0  0  0  0
  5 14  1  1  0  0  0
  6 21  1  6  0  0  0
  7 13  1  1  0  0  0
  7  6  1  0  0  0  0
  8  9  1  6  0  0  0
  8  7  1  0  0  0  0
 10 16  1  1  0  0  0
 11 10  1  0  0  0  0
 12 17  1  1  0  0  0
 12 11  1  0  0  0  0
 15  9  1  0  0  0  0
 22  8  1  0  0  0  0
 22  1  1  0  0  0  0
M  END
>  <CHROM.1>
-177.90447038,-54.88531290,59.10920888,9.56828955,-15.98082184,-3.69092943
0.19792636,0.17775294,3.13429682

>  <Name>
lig.pdb

>  <RI>
0

>  <Rbt.Current_Directory>
/home/itssahil/PROJECTS/Mol_Feturizer/New_Systems/rnas/5bxk

>  <Rbt.Executable>
rbdock ($Id: //depot/dev/client3/rdock/2013.1/src/exe/rbdock.cxx#4 $)

>  <Rbt.Library>
libRbt.so (2013.1, Build901 2013/11/27)

>  <Rbt.Parameter_File>
/export/apps/rDock/src/rDock_2013.1_src/data/scripts/dock_solv.prm

>  <Rbt.Receptor>
prm/blind_docking_40.prm

>  <SCORE>
-8.8329

>  <SCORE.INTER>
-5.81558

>  <SCORE.INTER.CONST>
1

>  <SCORE.INTER.POLAR>
0

>  <SCORE.INTER.ROT>
3

>  <SCORE.INTER.SOLV>
18.1204

>  <SCORE.INTER.VDW>
-15.5172

>  <SCORE.INTER.norm>
-0.264345

>  <SCORE.INTRA>
-3.01732

>  <SCORE.INTRA.DIHEDRAL>
-6.89317

>  <SCORE.INTRA.DIHEDRAL.0>
7.18044

>  <SCORE.INTRA.POLAR>
0

>  <SCORE.INTRA.POLAR.0>
0

>  <SCORE.INTRA.REPUL>
0

>  <SCORE.INTRA.REPUL.0>
0

>  <SCORE.INTRA.SOLV>
0.756291

>  <SCORE.INTRA.SOLV.lig_0>
-72.0615

>  <SCORE.INTRA.VDW>
0.0511248

>  <SCORE.INTRA.VDW.0>
-1.54792

>  <SCORE.INTRA.norm>
-0.137151

>  <SCORE.RESTR>
0

>  <SCORE.RESTR.CAVITY>
0

>  <SCORE.RESTR.norm>
0

>  <SCORE.SYSTEM>
0

>  <SCORE.SYSTEM.CONST>
0

>  <SCORE.SYSTEM.DIHEDRAL>
0

>  <SCORE.SYSTEM.SOLV>
0

>  <SCORE.SYSTEM.norm>
0

>  <SCORE.heavy>
22

>  <SCORE.norm>
-0.401495

>  <RMSD>
32.897

$$$$
lig.pdb
 OpenBabel11021811523D
libRbt.so/2013.1/901 2013/11/27
 22 23  0  0  0  0  0  0  0  0999 V2000
    8.3047  -18.9330   -3.9970 C   0  0  1  0  0  0  0  0  0  0  0  0
    9.0205  -16.5770   -3.5666 C   0  0  1  0  0  0  0  0  0  0  0  0
   10.2602  -16.5639   -4.6400 C   0  0  1  0  0  0  0  0  0  0  0  0
   11.2395  -15.3507   -4.2346 C   0  0  2  0  0  0  0  0  0  0  0  0
    7.1009  -19.8651   -4.4724 C   0  0  1  0  0  0  0  0  0  0  0  0
    6.0296  -20.0153   -3.3230 C   0  0  2  0  0  0  0  0  0  0  0  0
    6.7359  -20.7171   -2.0616 C   0  0  1  0  0  0  0  0  0  0  0  0
    7.9249  -19.7751   -1.4924 C   0  0  1  0  0  0  0  0  0  0  0  0
    8.6600  -20.3711   -0.2600 C   0  0  0  0  0  0  0  0  0  0  0  0
   10.4071  -13.9845   -4.3855 C   0  0  1  0  0  0  0  0  0  0  0  0
    9.1913  -14.0402   -3.3286 C   0  0  0  0  0  0  0  0  0  0  0  0
    8.2215  -15.2546   -3.6549 C   0  0  2  0  0  0  0  0  0  0  0  0
    5.7971  -20.9130   -0.9518 F   0  0  0  0  0  0  0  0  0  0  0  0
    6.5358  -19.2000   -5.7365 N   0  0  0  0  0  0  0  0  0  0  0  0
    9.2748  -21.6261   -0.4952 N   0  0  0  0  0  0  0  0  0  0  0  0
   11.2579  -12.8115   -4.0093 N   0  0  0  0  0  0  0  0  0  0  0  0
    7.1241  -15.3261   -2.6947 N   0  0  0  0  0  0  0  0  0  0  0  0
    8.0783  -17.5887   -3.8422 O   0  0  0  0  0  0  0  0  0  0  0  0
   11.0029  -17.8551   -4.5078 O   0  0  0  0  0  0  0  0  0  0  0  0
   12.2910  -15.3314   -5.1398 O   0  0  0  0  0  0  0  0  0  0  0  0
    5.1718  -20.7141   -3.7246 O   0  0  0  0  0  0  0  0  0  0  0  0
    8.9181  -19.5276   -2.6885 O   0  0  0  0  0  0  0  0  0  0  0  0
  1  5  1  0  0  0  0
  1 18  1  1  0  0  0
  2 18  1  6  0  0  0
  2  3  1  0  0  0  0
  2 12  1  0  0  0  0
  3 19  1  1  0  0  0
  3  4  1  0  0  0  0
  4 20  1  6  0  0  0
  4 10  1  0  0  0  0
  5  6  1  0  0  0  0
  5 14  1  6  0  0  0
  6 21  1  6  0  0  0
  7 13  1  1  0  0  0
  7  6  1  0  0  0  0
  8  9  1  1  0  0  0
  8  7  1  0  0  0  0
 10 16  1  1  0  0  0
 11 10  1  0  0  0  0
 12 17  1  1  0  0  0
 12 11  1  0  0  0  0
 15  9  1  0  0  0  0
 22  8  1  0  0  0  0
 22  1  1  0  0  0  0
M  END
>  <CHROM.1>
-173.00877584,54.17601401,59.63125866,8.54428043,-17.89852879,-3.30226541
2.15465427,0.37547627,2.56615100

>  <Name>
lig.pdb

>  <RI>
0

>  <Rbt.Current_Directory>
/home/itssahil/PROJECTS/Mol_Feturizer/New_Systems/rnas/5bxk

>  <Rbt.Executable>
rbdock ($Id: //depot/dev/client3/rdock/2013.1/src/exe/rbdock.cxx#4 $)

>  <Rbt.Library>
libRbt.so (2013.1, Build901 2013/11/27)

>  <Rbt.Parameter_File>
/export/apps/rDock/src/rDock_2013.1_src/data/scripts/dock_solv.prm

>  <Rbt.Receptor>
prm/blind_docking_40.prm

>  <SCORE>
-7.99618

>  <SCORE.INTER>
-4.36718

>  <SCORE.INTER.CONST>
1

>  <SCORE.INTER.POLAR>
0

>  <SCORE.INTER.ROT>
3

>  <SCORE.INTER.SOLV>
21.9496

>  <SCORE.INTER.VDW>
-15.828

>  <SCORE.INTER.norm>
-0.198508

>  <SCORE.INTRA>
-3.629

>  <SCORE.INTRA.DIHEDRAL>
-6.6489

>  <SCORE.INTRA.DIHEDRAL.0>
7.18044

>  <SCORE.INTRA.POLAR>
0

>  <SCORE.INTRA.POLAR.0>
0

>  <SCORE.INTRA.REPUL>
0

>  <SCORE.INTRA.REPUL.0>
0

>  <SCORE.INTRA.SOLV>
-0.78052

>  <SCORE.INTRA.SOLV.lig_0>
-72.0615

>  <SCORE.INTRA.VDW>
0.0857112

>  <SCORE.INTRA.VDW.0>
-1.54792

>  <SCORE.INTRA.norm>
-0.164955

>  <SCORE.RESTR>
0

>  <SCORE.RESTR.CAVITY>
0

>  <SCORE.RESTR.norm>
0

>  <SCORE.SYSTEM>
0

>  <SCORE.SYSTEM.CONST>
0

>  <SCORE.SYSTEM.DIHEDRAL>
0

>  <SCORE.SYSTEM.SOLV>
0

>  <SCORE.SYSTEM.norm>
0

>  <SCORE.heavy>
22

>  <SCORE.norm>
-0.363463

>  <RMSD>
32.911

$$$$
lig.pdb
 OpenBabel11021811523D
libRbt.so/2013.1/901 2013/11/27
 22 23  0  0  0  0  0  0  0  0999 V2000
   10.0851  -17.2129   -4.2319 C   0  0  1  0  0  0  0  0  0  0  0  0
    7.8555  -16.5120   -3.3453 C   0  0  1  0  0  0  0  0  0  0  0  0
    8.0691  -14.8982   -3.5435 C   0  0  1  0  0  0  0  0  0  0  0  0
    6.6091  -14.2205   -3.6082 C   0  0  2  0  0  0  0  0  0  0  0  0
   11.3363  -18.1772   -4.0110 C   0  0  1  0  0  0  0  0  0  0  0  0
   12.2234  -17.6669   -2.8094 C   0  0  2  0  0  0  0  0  0  0  0  0
   12.7792  -16.2045   -3.1763 C   0  0  1  0  0  0  0  0  0  0  0  0
   11.5478  -15.1648   -3.3419 C   0  0  1  0  0  0  0  0  0  0  0  0
   11.9932  -13.7169   -3.6877 C   0  0  0  0  0  0  0  0  0  0  0  0
    5.8588  -14.8080   -4.9020 C   0  0  1  0  0  0  0  0  0  0  0  0
    5.6806  -16.3944   -4.6785 C   0  0  0  0  0  0  0  0  0  0  0  0
    7.0958  -17.1046   -4.5563 C   0  0  2  0  0  0  0  0  0  0  0  0
   13.6348  -15.6653   -2.1139 F   0  0  0  0  0  0  0  0  0  0  0  0
   10.7453  -19.5745   -3.7699 N   0  0  0  0  0  0  0  0  0  0  0  0
   12.6928  -13.5964   -4.9141 N   0  0  0  0  0  0  0  0  0  0  0  0
    4.4836  -14.2270   -5.0156 N   0  0  0  0  0  0  0  0  0  0  0  0
    6.9483  -18.5404   -4.3373 N   0  0  0  0  0  0  0  0  0  0  0  0
    9.0755  -17.2171   -3.3028 O   0  0  0  0  0  0  0  0  0  0  0  0
    8.7968  -14.3754   -2.3462 O   0  0  0  0  0  0  0  0  0  0  0  0
    6.7810  -12.8541   -3.7779 O   0  0  0  0  0  0  0  0  0  0  0  0
   13.1303  -18.4086   -2.6961 O   0  0  0  0  0  0  0  0  0  0  0  0
   10.6032  -15.7555   -4.4542 O   0  0  0  0  0  0  0  0  0  0  0  0
  1  5  1  0  0  0  0
  1 18  1  1  0  0  0
  2 18  1  6  0  0  0
  2  3  1  0  0  0  0
  2 12  1  0  0  0  0
  3 19  1  1  0  0  0
  3  4  1  0  0  0  0
  4 20  1  6  0  0  0
  4 10  1  0  0  0  0
  5  6  1  0  0  0  0
  5 14  1  1  0  0  0
  6 21  1  6  0  0  0
  7 13  1  1  0  0  0
  7  6  1  0  0  0  0
  8  9  1  6  0  0  0
  8  7  1  0  0  0  0
 10 16  1  1  0  0  0
 11 10  1  0  0  0  0
 12 17  1  1  0  0  0
 12 11  1  0  0  0  0
 15  9  1  0  0  0  0
 22  8  1  0  0  0  0
 22  1  1  0  0  0  0
M  END
>  <CHROM.1>
-175.78493394,-55.15459132,61.41348824,9.53272930,-15.99270218,-3.71545331
0.23179419,0.17758139,-3.13092188

>  <Name>
lig.pdb

>  <RI>
0

>  <Rbt.Current_Directory>
/home/itssahil/PROJECTS/Mol_Feturizer/New_Systems/rnas/5bxk

>  <Rbt.Executable>
rbdock ($Id: //depot/dev/client3/rdock/2013.1/src/exe/rbdock.cxx#4 $)

>  <Rbt.Library>
libRbt.so (2013.1, Build901 2013/11/27)

>  <Rbt.Parameter_File>
/export/apps/rDock/src/rDock_2013.1_src/data/scripts/dock_solv.prm

>  <Rbt.Receptor>
prm/blind_docking_40.prm

>  <SCORE>
-8.78955

>  <SCORE.INTER>
-5.76473

>  <SCORE.INTER.CONST>
1

>  <SCORE.INTER.POLAR>
0

>  <SCORE.INTER.ROT>
3

>  <SCORE.INTER.SOLV>
18.2601

>  <SCORE.INTER.VDW>
-15.5299

>  <SCORE.INTER.norm>
-0.262033

>  <SCORE.INTRA>
-3.02482

>  <SCORE.INTRA.DIHEDRAL>
-6.83821

>  <SCORE.INTRA.DIHEDRAL.0>
7.18044

>  <SCORE.INTRA.POLAR>
0

>  <SCORE.INTRA.POLAR.0>
0

>  <SCORE.INTRA.REPUL>
0

>  <SCORE.INTRA.REPUL.0>
0

>  <SCORE.INTRA.SOLV>
0.836361

>  <SCORE.INTRA.SOLV.lig_0>
-72.0615

>  <SCORE.INTRA.VDW>
-0.0239004

>  <SCORE.INTRA.VDW.0>
-1.54792

>  <SCORE.INTRA.norm>
-0.137492

>  <SCORE.RESTR>
0

>  <SCORE.RESTR.CAVITY>
0

>  <SCORE.RESTR.norm>
0

>  <SCORE.SYSTEM>
0

>  <SCORE.SYSTEM.CONST>
0

>  <SCORE.SYSTEM.DIHEDRAL>
0

>  <SCORE.SYSTEM.SOLV>
0

>  <SCORE.SYSTEM.norm>
0

>  <SCORE.heavy>
22

>  <SCORE.norm>
-0.399525

>  <RMSD>
32.925

$$$$
lig.pdb
 OpenBabel11021811523D
libRbt.so/2013.1/901 2013/11/27
 22 23  0  0  0  0  0  0  0  0999 V2000
   10.2984  -18.1720   -3.6000 C   0  0  1  0  0  0  0  0  0  0  0  0
   11.6142  -16.3231   -4.6480 C   0  0  1  0  0  0  0  0  0  0  0  0
   10.4651  -15.1536   -4.6155 C   0  0  1  0  0  0  0  0  0  0  0  0
   11.2204  -13.7310   -4.6482 C   0  0  2  0  0  0  0  0  0  0  0  0
    9.7816  -19.6713   -3.7701 C   0  0  1  0  0  0  0  0  0  0  0  0
    8.6721  -19.7509   -4.8900 C   0  0  2  0  0  0  0  0  0  0  0  0
    7.4272  -18.8428   -4.4341 C   0  0  1  0  0  0  0  0  0  0  0  0
    7.8816  -17.2922   -4.3150 C   0  0  1  0  0  0  0  0  0  0  0  0
    6.7345  -16.3348   -3.8882 C   0  0  0  0  0  0  0  0  0  0  0  0
   12.1093  -13.6232   -3.3139 C   0  0  1  0  0  0  0  0  0  0  0  0
   13.2149  -14.7948   -3.3739 C   0  0  0  0  0  0  0  0  0  0  0  0
   12.5177  -16.2214   -3.3957 C   0  0  2  0  0  0  0  0  0  0  0  0
    6.3384  -18.8797   -5.4163 F   0  0  0  0  0  0  0  0  0  0  0  0
   11.0290  -20.5048   -4.1006 N   0  0  0  0  0  0  0  0  0  0  0  0
    7.1263  -14.9811   -3.7397 N   0  0  0  0  0  0  0  0  0  0  0  0
   12.8526  -12.3239   -3.2863 N   0  0  0  0  0  0  0  0  0  0  0  0
   13.5081  -17.2916   -3.4663 N   0  0  0  0  0  0  0  0  0  0  0  0
   11.0658  -17.6206   -4.5947 O   0  0  0  0  0  0  0  0  0  0  0  0
    9.6285  -15.2899   -5.8474 O   0  0  0  0  0  0  0  0  0  0  0  0
   10.2545  -12.7352   -4.6189 O   0  0  0  0  0  0  0  0  0  0  0  0
    8.3248  -20.8728   -4.9682 O   0  0  0  0  0  0  0  0  0  0  0  0
    9.0765  -17.2482   -3.2910 O   0  0  0  0  0  0  0  0  0  0  0  0
  1  5  1  0  0  0  0
  1 18  1  6  0  0  0
  2 18  1  1  0  0  0
  2  3  1  0  0  0  0
  2 12  1  0  0  0  0
  3 19  1  6  0  0  0
  3  4  1  0  0  0  0
  4 20  1  1  0  0  0
  4 10  1  0  0  0  0
  5  6  1  0  0  0  0
  5 14  1  6  0  0  0
  6 21  1  1  0  0  0
  7 13  1  6  0  0  0
  7  6  1  0  0  0  0
  8  9  1  1  0  0  0
  8  7  1  0  0  0  0
 10 16  1  6  0  0  0
 11 10  1  0  0  0  0
 12 17  1  6  0  0  0
 12 11  1  0  0  0  0
 15  9  1  0  0  0  0
 22  8  1  0  0  0  0
 22  1  1  0  0  0  0
M  END
>  <CHROM.1>
179.64284253,-60.80715395,178.15104414,9.97594687,-16.74223561,-4.22727618
-2.21336015,-0.16953857,0.01208865

>  <Name>
lig.pdb

>  <RI>
0

>  <Rbt.Current_Directory>
/home/itssahil/PROJECTS/Mol_Feturizer/New_Systems/rnas/5bxk

>  <Rbt.Executable>
rbdock ($Id: //depot/dev/client3/rdock/2013.1/src/exe/rbdock.cxx#4 $)

>  <Rbt.Library>
libRbt.so (2013.1, Build901 2013/11/27)

>  <Rbt.Parameter_File>
/export/apps/rDock/src/rDock_2013.1_src/data/scripts/dock_solv.prm

>  <Rbt.Receptor>
prm/blind_docking_40.prm

>  <SCORE>
-6.89615

>  <SCORE.INTER>
-4.01972

>  <SCORE.INTER.CONST>
1

>  <SCORE.INTER.POLAR>
0

>  <SCORE.INTER.ROT>
3

>  <SCORE.INTER.SOLV>
18.3667

>  <SCORE.INTER.VDW>
-14.402

>  <SCORE.INTER.norm>
-0.182714

>  <SCORE.INTRA>
-2.87643

>  <SCORE.INTRA.DIHEDRAL>
-7.02922

>  <SCORE.INTRA.DIHEDRAL.0>
7.18044

>  <SCORE.INTRA.POLAR>
0

>  <SCORE.INTRA.POLAR.0>
0

>  <SCORE.INTRA.REPUL>
0

>  <SCORE.INTRA.REPUL.0>
0

>  <SCORE.INTRA.SOLV>
1.62834

>  <SCORE.INTRA.SOLV.lig_0>
-72.0615

>  <SCORE.INTRA.VDW>
-0.175989

>  <SCORE.INTRA.VDW.0>
-1.54792

>  <SCORE.INTRA.norm>
-0.130747

>  <SCORE.RESTR>
0

>  <SCORE.RESTR.CAVITY>
0

>  <SCORE.RESTR.norm>
0

>  <SCORE.SYSTEM>
0

>  <SCORE.SYSTEM.CONST>
0

>  <SCORE.SYSTEM.DIHEDRAL>
0

>  <SCORE.SYSTEM.SOLV>
0

>  <SCORE.SYSTEM.norm>
0

>  <SCORE.heavy>
22

>  <SCORE.norm>
-0.313461

>  <RMSD>
32.991

$$$$
lig.pdb
 OpenBabel11021811523D
libRbt.so/2013.1/901 2013/11/27
 22 23  0  0  0  0  0  0  0  0999 V2000
    7.9009  -17.5547   -3.4594 C   0  0  1  0  0  0  0  0  0  0  0  0
   10.0114  -18.5719   -4.3308 C   0  0  1  0  0  0  0  0  0  0  0  0
   11.0637  -17.3832   -3.9198 C   0  0  1  0  0  0  0  0  0  0  0  0
   12.5246  -18.0507   -3.7960 C   0  0  2  0  0  0  0  0  0  0  0  0
    6.4268  -17.0741   -3.8338 C   0  0  1  0  0  0  0  0  0  0  0  0
    6.4788  -15.7825   -4.7396 C   0  0  2  0  0  0  0  0  0  0  0  0
    7.1897  -14.6076   -3.9050 C   0  0  1  0  0  0  0  0  0  0  0  0
    8.7190  -15.0155   -3.5589 C   0  0  1  0  0  0  0  0  0  0  0  0
    9.4909  -13.9296   -2.7593 C   0  0  0  0  0  0  0  0  0  0  0  0
   12.4662  -19.1276   -2.6048 C   0  0  1  0  0  0  0  0  0  0  0  0
   11.4134  -20.2693   -3.0367 C   0  0  0  0  0  0  0  0  0  0  0  0
    9.9625  -19.6508   -3.2226 C   0  0  2  0  0  0  0  0  0  0  0  0
    7.2589  -13.3598   -4.6729 F   0  0  0  0  0  0  0  0  0  0  0  0
    5.7655  -18.2714   -4.5330 N   0  0  0  0  0  0  0  0  0  0  0  0
    9.6700  -12.7075   -3.4539 N   0  0  0  0  0  0  0  0  0  0  0  0
   13.7947  -19.7988   -2.4435 N   0  0  0  0  0  0  0  0  0  0  0  0
    9.0020  -20.6720   -3.6297 N   0  0  0  0  0  0  0  0  0  0  0  0
    8.6857  -18.1053   -4.4409 O   0  0  0  0  0  0  0  0  0  0  0  0
   11.0802  -16.3750   -5.0242 O   0  0  0  0  0  0  0  0  0  0  0  0
   13.4213  -17.0511   -3.4463 O   0  0  0  0  0  0  0  0  0  0  0  0
    5.3694  -15.4706   -4.9791 O   0  0  0  0  0  0  0  0  0  0  0  0
    8.6566  -16.3750   -2.7673 O   0  0  0  0  0  0  0  0  0  0  0  0
  1  5  1  0  0  0  0
  1 18  1  6  0  0  0
  2 18  1  1  0  0  0
  2  3  1  0  0  0  0
  2 12  1  0  0  0  0
  3 19  1  6  0  0  0
  3  4  1  0  0  0  0
  4 20  1  1  0  0  0
  4 10  1  0  0  0  0
  5  6  1  0  0  0  0
  5 14  1  6  0  0  0
  6 21  1  1  0  0  0
  7 13  1  6  0  0  0
  7  6  1  0  0  0  0
  8  9  1  1  0  0  0
  8  7  1  0  0  0  0
 10 16  1  6  0  0  0
 11 10  1  0  0  0  0
 12 17  1  6  0  0  0
 12 11  1  0  0  0  0
 15  9  1  0  0  0  0
 22  8  1  0  0  0  0
 22  1  1  0  0  0  0
M  END
>  <CHROM.1>
178.96208093,-62.29247488,-63.72238826,9.35132057,-16.97663699,-3.77970100
2.46961690,-0.17768248,-0.02378327

>  <Name>
lig.pdb

>  <RI>
0

>  <Rbt.Current_Directory>
/home/itssahil/PROJECTS/Mol_Feturizer/New_Systems/rnas/5bxk

>  <Rbt.Executable>
rbdock ($Id: //depot/dev/client3/rdock/2013.1/src/exe/rbdock.cxx#4 $)

>  <Rbt.Library>
libRbt.so (2013.1, Build901 2013/11/27)

>  <Rbt.Parameter_File>
/export/apps/rDock/src/rDock_2013.1_src/data/scripts/dock_solv.prm

>  <Rbt.Receptor>
prm/blind_docking_60.prm

>  <SCORE>
-7.46606

>  <SCORE.INTER>
-4.30441

>  <SCORE.INTER.CONST>
1

>  <SCORE.INTER.POLAR>
0

>  <SCORE.INTER.ROT>
3

>  <SCORE.INTER.SOLV>
17.4398

>  <SCORE.INTER.VDW>
-14.2829

>  <SCORE.INTER.norm>
-0.195655

>  <SCORE.INTRA>
-3.16164

>  <SCORE.INTRA.DIHEDRAL>
-6.9648

>  <SCORE.INTRA.DIHEDRAL.0>
7.18044

>  <SCORE.INTRA.POLAR>
0

>  <SCORE.INTRA.POLAR.0>
0

>  <SCORE.INTRA.REPUL>
0

>  <SCORE.INTRA.REPUL.0>
0

>  <SCORE.INTRA.SOLV>
0.489574

>  <SCORE.INTRA.SOLV.lig_0>
-72.0615

>  <SCORE.INTRA.VDW>
0.0759698

>  <SCORE.INTRA.VDW.0>
-1.54792

>  <SCORE.INTRA.norm>
-0.143711

>  <SCORE.RESTR>
0

>  <SCORE.RESTR.CAVITY>
0

>  <SCORE.RESTR.norm>
0

>  <SCORE.SYSTEM>
0

>  <SCORE.SYSTEM.CONST>
0

>  <SCORE.SYSTEM.DIHEDRAL>
0

>  <SCORE.SYSTEM.SOLV>
0

>  <SCORE.SYSTEM.norm>
0

>  <SCORE.heavy>
22

>  <SCORE.norm>
-0.339366

>  <RMSD>
33.022

$$$$
lig.pdb
 OpenBabel11021811523D
libRbt.so/2013.1/901 2013/11/27
 22 23  0  0  0  0  0  0  0  0999 V2000
    8.6167  -17.6777   -3.4303 C   0  0  1  0  0  0  0  0  0  0  0  0
   10.8774  -17.6532   -4.4967 C   0  0  1  0  0  0  0  0  0  0  0  0
   11.1038  -16.0331   -4.6129 C   0  0  1  0  0  0  0  0  0  0  0  0
   12.6919  -15.7682   -4.6647 C   0  0  2  0  0  0  0  0  0  0  0  0
    7.0719  -18.0003   -3.6612 C   0  0  1  0  0  0  0  0  0  0  0  0
    6.4631  -17.0396   -4.7556 C   0  0  2  0  0  0  0  0  0  0  0  0
    6.5831  -15.5276   -4.2246 C   0  0  1  0  0  0  0  0  0  0  0  0
    8.1410  -15.1228   -4.0406 C   0  0  1  0  0  0  0  0  0  0  0  0
    8.3545  -13.6678   -3.5387 C   0  0  0  0  0  0  0  0  0  0  0  0
   13.3147  -16.2815   -3.2752 C   0  0  1  0  0  0  0  0  0  0  0  0
   13.0603  -17.8709   -3.1895 C   0  0  0  0  0  0  0  0  0  0  0  0
   11.5045  -18.1892   -3.1874 C   0  0  2  0  0  0  0  0  0  0  0  0
    6.0174  -14.5691   -5.1799 F   0  0  0  0  0  0  0  0  0  0  0  0
    7.0134  -19.4817   -4.0633 N   0  0  0  0  0  0  0  0  0  0  0  0
    7.8858  -12.6674   -4.4261 N   0  0  0  0  0  0  0  0  0  0  0  0
   14.7977  -16.0763   -3.2614 N   0  0  0  0  0  0  0  0  0  0  0  0
   11.2603  -19.6272   -3.1263 N   0  0  0  0  0  0  0  0  0  0  0  0
    9.5143  -18.0036   -4.4155 O   0  0  0  0  0  0  0  0  0  0  0  0
   10.4898  -15.5690   -5.8950 O   0  0  0  0  0  0  0  0  0  0  0  0
   12.8923  -14.3985   -4.7611 O   0  0  0  0  0  0  0  0  0  0  0  0
    5.3260  -17.3170   -4.8804 O   0  0  0  0  0  0  0  0  0  0  0  0
    8.7663  -16.1705   -3.0458 O   0  0  0  0  0  0  0  0  0  0  0  0
  1  5  1  0  0  0  0
  1 18  1  6  0  0  0
  2 18  1  1  0  0  0
  2  3  1  0  0  0  0
  2 12  1  0  0  0  0
  3 19  1  6  0  0  0
  3  4  1  0  0  0  0
  4 20  1  1  0  0  0
  4 10  1  0  0  0  0
  5  6  1  0  0  0  0
  5 14  1  6  0  0  0
  6 21  1  1  0  0  0
  7 13  1  6  0  0  0
  7  6  1  0  0  0  0
  8  9  1  1  0  0  0
  8  7  1  0  0  0  0
 10 16  1  6  0  0  0
 11 10  1  0  0  0  0
 12 17  1  6  0  0  0
 12 11  1  0  0  0  0
 15  9  1  0  0  0  0
 22  8  1  0  0  0  0
 22  1  1  0  0  0  0
M  END
>  <CHROM.1>
170.83411894,-63.14843362,-62.92859482,9.55988269,-16.44240626,-4.13201679
3.04819357,-0.09021349,-0.17428719

>  <Name>
lig.pdb

>  <RI>
0

>  <Rbt.Current_Directory>
/home/itssahil/PROJECTS/Mol_Feturizer/New_Systems/rnas/5bxk

>  <Rbt.Executable>
rbdock ($Id: //depot/dev/client3/rdock/2013.1/src/exe/rbdock.cxx#4 $)

>  <Rbt.Library>
libRbt.so (2013.1, Build901 2013/11/27)

>  <Rbt.Parameter_File>
/export/apps/rDock/src/rDock_2013.1_src/data/scripts/dock_solv.prm

>  <Rbt.Receptor>
prm/blind_docking_60.prm

>  <SCORE>
-7.63451

>  <SCORE.INTER>
-4.7082

>  <SCORE.INTER.CONST>
1

>  <SCORE.INTER.POLAR>
0

>  <SCORE.INTER.ROT>
3

>  <SCORE.INTER.SOLV>
19.4289

>  <SCORE.INTER.VDW>
-15.2151

>  <SCORE.INTER.norm>
-0.214009

>  <SCORE.INTRA>
-2.92631

>  <SCORE.INTRA.DIHEDRAL>
-6.57434

>  <SCORE.INTRA.DIHEDRAL.0>
7.18044

>  <SCORE.INTRA.POLAR>
0

>  <SCORE.INTRA.POLAR.0>
0

>  <SCORE.INTRA.REPUL>
0

>  <SCORE.INTRA.REPUL.0>
0

>  <SCORE.INTRA.SOLV>
0.320249

>  <SCORE.INTRA.SOLV.lig_0>
-72.0615

>  <SCORE.INTRA.VDW>
0.200736

>  <SCORE.INTRA.VDW.0>
-1.54792

>  <SCORE.INTRA.norm>
-0.133014

>  <SCORE.RESTR>
0

>  <SCORE.RESTR.CAVITY>
0

>  <SCORE.RESTR.norm>
0

>  <SCORE.SYSTEM>
0

>  <SCORE.SYSTEM.CONST>
0

>  <SCORE.SYSTEM.DIHEDRAL>
0

>  <SCORE.SYSTEM.SOLV>
0

>  <SCORE.SYSTEM.norm>
0

>  <SCORE.heavy>
22

>  <SCORE.norm>
-0.347023

>  <RMSD>
33.027

$$$$
lig.pdb
 OpenBabel11021811523D
libRbt.so/2013.1/901 2013/11/27
 22 23  0  0  0  0  0  0  0  0999 V2000
    8.6828  -17.6085   -3.1583 C   0  0  1  0  0  0  0  0  0  0  0  0
   11.1055  -18.0480   -3.5889 C   0  0  1  0  0  0  0  0  0  0  0  0
   11.5345  -19.5443   -3.0728 C   0  0  1  0  0  0  0  0  0  0  0  0
   13.1076  -19.5056   -2.7281 C   0  0  2  0  0  0  0  0  0  0  0  0
    7.2036  -17.9030   -3.6774 C   0  0  1  0  0  0  0  0  0  0  0  0
    6.8390  -16.9491   -4.8809 C   0  0  2  0  0  0  0  0  0  0  0  0
    6.8909  -15.4309   -4.3568 C   0  0  1  0  0  0  0  0  0  0  0  0
    8.3937  -15.0553   -3.8823 C   0  0  1  0  0  0  0  0  0  0  0  0
    8.5416  -13.5966   -3.3680 C   0  0  0  0  0  0  0  0  0  0  0  0
   13.8947  -19.1806   -4.0908 C   0  0  1  0  0  0  0  0  0  0  0  0
   13.4373  -17.7126   -4.5747 C   0  0  0  0  0  0  0  0  0  0  0  0
   11.8789  -17.6842   -4.8790 C   0  0  2  0  0  0  0  0  0  0  0  0
    6.5418  -14.4776   -5.4155 F   0  0  0  0  0  0  0  0  0  0  0  0
    7.1881  -19.3897   -4.0637 N   0  0  0  0  0  0  0  0  0  0  0  0
    9.8660  -13.2285   -3.0232 N   0  0  0  0  0  0  0  0  0  0  0  0
   15.3690  -19.1163   -3.8384 N   0  0  0  0  0  0  0  0  0  0  0  0
   11.4484  -16.3553   -5.3030 N   0  0  0  0  0  0  0  0  0  0  0  0
    9.7446  -17.9702   -3.9483 O   0  0  0  0  0  0  0  0  0  0  0  0
   10.7686  -19.8421   -1.8234 O   0  0  0  0  0  0  0  0  0  0  0  0
   13.4793  -20.7694   -2.2921 O   0  0  0  0  0  0  0  0  0  0  0  0
    5.7407  -17.2049   -5.2181 O   0  0  0  0  0  0  0  0  0  0  0  0
    8.7917  -16.0982   -2.7721 O   0  0  0  0  0  0  0  0  0  0  0  0
  1  5  1  0  0  0  0
  1 18  1  6  0  0  0
  2 18  1  6  0  0  0
  2  3  1  0  0  0  0
  2 12  1  0  0  0  0
  3 19  1  1  0  0  0
  3  4  1  0  0  0  0
  4 20  1  6  0  0  0
  4 10  1  0  0  0  0
  5  6  1  0  0  0  0
  5 14  1  6  0  0  0
  6 21  1  1  0  0  0
  7 13  1  6  0  0  0
  7  6  1  0  0  0  0
  8  9  1  1  0  0  0
  8  7  1  0  0  0  0
 10 16  1  1  0  0  0
 11 10  1  0  0  0  0
 12 17  1  1  0  0  0
 12 11  1  0  0  0  0
 15  9  1  0  0  0  0
 22  8  1  0  0  0  0
 22  1  1  0  0  0  0
M  END
>  <CHROM.1>
-166.44986670,92.05837274,-176.47309725,9.95717647,-17.36934909,-3.82193724
2.58298715,-0.06829479,-0.16023906

>  <Name>
lig.pdb

>  <RI>
0

>  <Rbt.Current_Directory>
/home/itssahil/PROJECTS/Mol_Feturizer/New_Systems/rnas/5bxk

>  <Rbt.Executable>
rbdock ($Id: //depot/dev/client3/rdock/2013.1/src/exe/rbdock.cxx#4 $)

>  <Rbt.Library>
libRbt.so (2013.1, Build901 2013/11/27)

>  <Rbt.Parameter_File>
/export/apps/rDock/src/rDock_2013.1_src/data/scripts/dock_solv.prm

>  <Rbt.Receptor>
prm/blind_docking_80.prm

>  <SCORE>
-4.46753

>  <SCORE.INTER>
-3.00043

>  <SCORE.INTER.CONST>
1

>  <SCORE.INTER.POLAR>
0

>  <SCORE.INTER.ROT>
3

>  <SCORE.INTER.SOLV>
17.6027

>  <SCORE.INTER.VDW>
-13.4679

>  <SCORE.INTER.norm>
-0.136383

>  <SCORE.INTRA>
-1.46709

>  <SCORE.INTRA.DIHEDRAL>
-2.17598

>  <SCORE.INTRA.DIHEDRAL.0>
7.18044

>  <SCORE.INTRA.POLAR>
0

>  <SCORE.INTRA.POLAR.0>
0

>  <SCORE.INTRA.REPUL>
0

>  <SCORE.INTRA.REPUL.0>
0

>  <SCORE.INTRA.SOLV>
-0.301587

>  <SCORE.INTRA.SOLV.lig_0>
-72.0615

>  <SCORE.INTRA.VDW>
-0.228309

>  <SCORE.INTRA.VDW.0>
-1.54792

>  <SCORE.INTRA.norm>
-0.0666861

>  <SCORE.RESTR>
0

>  <SCORE.RESTR.CAVITY>
0

>  <SCORE.RESTR.norm>
0

>  <SCORE.SYSTEM>
0

>  <SCORE.SYSTEM.CONST>
0

>  <SCORE.SYSTEM.DIHEDRAL>
0

>  <SCORE.SYSTEM.SOLV>
0

>  <SCORE.SYSTEM.norm>
0

>  <SCORE.heavy>
22

>  <SCORE.norm>
-0.203069

>  <RMSD>
33.042

$$$$
lig.pdb
 OpenBabel11021811523D
libRbt.so/2013.1/901 2013/11/27
 22 23  0  0  0  0  0  0  0  0999 V2000
    9.0577  -17.9588   -3.4937 C   0  0  1  0  0  0  0  0  0  0  0  0
   11.0077  -16.9011   -4.6459 C   0  0  1  0  0  0  0  0  0  0  0  0
   10.5470  -15.3342   -4.4985 C   0  0  1  0  0  0  0  0  0  0  0  0
   11.8749  -14.4274   -4.5963 C   0  0  2  0  0  0  0  0  0  0  0  0
    7.8862  -19.0336   -3.6217 C   0  0  1  0  0  0  0  0  0  0  0  0
    6.7938  -18.5423   -4.6496 C   0  0  2  0  0  0  0  0  0  0  0  0
    6.1576  -17.1742   -4.0963 C   0  0  1  0  0  0  0  0  0  0  0  0
    7.2946  -16.0231   -4.0143 C   0  0  1  0  0  0  0  0  0  0  0  0
    6.7657  -14.6564   -3.4978 C   0  0  0  0  0  0  0  0  0  0  0  0
   12.8168  -14.8112   -3.3522 C   0  0  1  0  0  0  0  0  0  0  0  0
   13.2360  -16.3583   -3.5228 C   0  0  0  0  0  0  0  0  0  0  0  0
   11.9528  -17.2931   -3.4848 C   0  0  2  0  0  0  0  0  0  0  0  0
    5.1131  -16.6601   -4.9886 F   0  0  0  0  0  0  0  0  0  0  0  0
    8.5685  -20.3415   -4.0502 N   0  0  0  0  0  0  0  0  0  0  0  0
    5.7293  -14.0944   -4.2842 N   0  0  0  0  0  0  0  0  0  0  0  0
   14.0814  -14.0107   -3.3895 N   0  0  0  0  0  0  0  0  0  0  0  0
   12.3173  -18.6965   -3.6545 N   0  0  0  0  0  0  0  0  0  0  0  0
    9.9220  -17.7948   -4.5467 O   0  0  0  0  0  0  0  0  0  0  0  0
    9.6461  -15.0049   -5.6458 O   0  0  0  0  0  0  0  0  0  0  0  0
   11.4939  -13.0991   -4.4705 O   0  0  0  0  0  0  0  0  0  0  0  0
    5.9553  -19.3668   -4.6995 O   0  0  0  0  0  0  0  0  0  0  0  0
    8.4388  -16.5823   -3.0887 O   0  0  0  0  0  0  0  0  0  0  0  0
  1  5  1  0  0  0  0
  1 18  1  6  0  0  0
  2 18  1  1  0  0  0
  2  3  1  0  0  0  0
  2 12  1  0  0  0  0
  3 19  1  6  0  0  0
  3  4  1  0  0  0  0
  4 20  1  1  0  0  0
  4 10  1  0  0  0  0
  5  6  1  0  0  0  0
  5 14  1  6  0  0  0
  6 21  1  1  0  0  0
  7 13  1  6  0  0  0
  7  6  1  0  0  0  0
  8  9  1  1  0  0  0
  8  7  1  0  0  0  0
 10 16  1  6  0  0  0
 11 10  1  0  0  0  0
 12 17  1  6  0  0  0
 12 11  1  0  0  0  0
 15  9  1  0  0  0  0
 22  8  1  0  0  0  0
 22  1  1  0  0  0  0
M  END
>  <CHROM.1>
179.38467342,-59.72094492,-59.25357511,9.31116614,-16.54247093,-4.13233779
-2.78633178,-0.09543522,-0.06211879

>  <Name>
lig.pdb

>  <RI>
0

>  <Rbt.Current_Directory>
/home/itssahil/PROJECTS/Mol_Feturizer/New_Systems/rnas/5bxk

>  <Rbt.Executable>
rbdock ($Id: //depot/dev/client3/rdock/2013.1/src/exe/rbdock.cxx#4 $)

>  <Rbt.Library>
libRbt.so (2013.1, Build901 2013/11/27)

>  <Rbt.Parameter_File>
/export/apps/rDock/src/rDock_2013.1_src/data/scripts/dock_solv.prm

>  <Rbt.Receptor>
prm/blind_docking_100.prm

>  <SCORE>
-7.61979

>  <SCORE.INTER>
-4.51996

>  <SCORE.INTER.CONST>
1

>  <SCORE.INTER.POLAR>
0

>  <SCORE.INTER.ROT>
3

>  <SCORE.INTER.SOLV>
15.3309

>  <SCORE.INTER.VDW>
-13.7236

>  <SCORE.INTER.norm>
-0.205453

>  <SCORE.INTRA>
-3.09982

>  <SCORE.INTRA.DIHEDRAL>
-7.04067

>  <SCORE.INTRA.DIHEDRAL.0>
7.18044

>  <SCORE.INTRA.POLAR>
0

>  <SCORE.INTRA.POLAR.0>
0

>  <SCORE.INTRA.REPUL>
0

>  <SCORE.INTRA.REPUL.0>
0

>  <SCORE.INTRA.SOLV>
0.580233

>  <SCORE.INTRA.SOLV.lig_0>
-72.0615

>  <SCORE.INTRA.VDW>
0.130394

>  <SCORE.INTRA.VDW.0>
-1.54792

>  <SCORE.INTRA.norm>
-0.140901

>  <SCORE.RESTR>
0

>  <SCORE.RESTR.CAVITY>
0

>  <SCORE.RESTR.norm>
0

>  <SCORE.SYSTEM>
0

>  <SCORE.SYSTEM.CONST>
0

>  <SCORE.SYSTEM.DIHEDRAL>
0

>  <SCORE.SYSTEM.SOLV>
0

>  <SCORE.SYSTEM.norm>
0

>  <SCORE.heavy>
22

>  <SCORE.norm>
-0.346354

>  <RMSD>
33.056

$$$$
lig.pdb
 OpenBabel11021811523D
libRbt.so/2013.1/901 2013/11/27
 22 23  0  0  0  0  0  0  0  0999 V2000
    9.9853  -17.6356   -4.2691 C   0  0  1  0  0  0  0  0  0  0  0  0
    7.9472  -16.5721   -3.2875 C   0  0  1  0  0  0  0  0  0  0  0  0
    8.2515  -14.9914   -3.6005 C   0  0  1  0  0  0  0  0  0  0  0  0
    6.8345  -14.2272   -3.6582 C   0  0  2  0  0  0  0  0  0  0  0  0
   11.2650  -18.5389   -3.9685 C   0  0  1  0  0  0  0  0  0  0  0  0
   12.3129  -17.7423   -3.0975 C   0  0  2  0  0  0  0  0  0  0  0  0
   12.7943  -16.4578   -3.9347 C   0  0  1  0  0  0  0  0  0  0  0  0
   11.5414  -15.4674   -4.2067 C   0  0  1  0  0  0  0  0  0  0  0  0
   11.9168  -14.1875   -5.0039 C   0  0  0  0  0  0  0  0  0  0  0  0
    5.9986  -14.8477   -4.8823 C   0  0  1  0  0  0  0  0  0  0  0  0
    5.7323  -16.4018   -4.5470 C   0  0  0  0  0  0  0  0  0  0  0  0
    7.1049  -17.1916   -4.4283 C   0  0  2  0  0  0  0  0  0  0  0  0
   13.7904  -15.6713   -3.1994 F   0  0  0  0  0  0  0  0  0  0  0  0
   10.7299  -19.7947   -3.2641 N   0  0  0  0  0  0  0  0  0  0  0  0
   10.8469  -13.2764   -5.1866 N   0  0  0  0  0  0  0  0  0  0  0  0
    4.6583  -14.1885   -4.9853 N   0  0  0  0  0  0  0  0  0  0  0  0
    6.8783  -18.5979   -4.1087 N   0  0  0  0  0  0  0  0  0  0  0  0
    9.1223  -17.3495   -3.2415 O   0  0  0  0  0  0  0  0  0  0  0  0
    9.0571  -14.4400   -2.4676 O   0  0  0  0  0  0  0  0  0  0  0  0
    7.0832  -12.8884   -3.9249 O   0  0  0  0  0  0  0  0  0  0  0  0
   13.2342  -18.4510   -2.9121 O   0  0  0  0  0  0  0  0  0  0  0  0
   10.4505  -16.3146   -4.9622 O   0  0  0  0  0  0  0  0  0  0  0  0
  1  5  1  0  0  0  0
  1 18  1  1  0  0  0
  2 18  1  6  0  0  0
  2  3  1  0  0  0  0
  2 12  1  0  0  0  0
  3 19  1  1  0  0  0
  3  4  1  0  0  0  0
  4 20  1  6  0  0  0
  4 10  1  0  0  0  0
  5  6  1  0  0  0  0
  5 14  1  1  0  0  0
  6 21  1  6  0  0  0
  7 13  1  1  0  0  0
  7  6  1  0  0  0  0
  8  9  1  6  0  0  0
  8  7  1  0  0  0  0
 10 16  1  1  0  0  0
 11 10  1  0  0  0  0
 12 17  1  1  0  0  0
 12 11  1  0  0  0  0
 15  9  1  0  0  0  0
 22  8  1  0  0  0  0
 22  1  1  0  0  0  0
M  END
>  <CHROM.1>
179.64635745,-66.17584607,-176.72534425,9.51504137,-16.12413304,-3.93498776
0.34788207,0.07341439,3.01463908

>  <Name>
lig.pdb

>  <RI>
0

>  <Rbt.Current_Directory>
/home/itssahil/PROJECTS/Mol_Feturizer/New_Systems/rnas/5bxk

>  <Rbt.Executable>
rbdock ($Id: //depot/dev/client3/rdock/2013.1/src/exe/rbdock.cxx#4 $)

>  <Rbt.Library>
libRbt.so (2013.1, Build901 2013/11/27)

>  <Rbt.Parameter_File>
/export/apps/rDock/src/rDock_2013.1_src/data/scripts/dock_solv.prm

>  <Rbt.Receptor>
prm/blind_docking_100.prm

>  <SCORE>
-8.22854

>  <SCORE.INTER>
-5.34868

>  <SCORE.INTER.CONST>
1

>  <SCORE.INTER.POLAR>
0

>  <SCORE.INTER.ROT>
3

>  <SCORE.INTER.SOLV>
19.3214

>  <SCORE.INTER.VDW>
-15.6062

>  <SCORE.INTER.norm>
-0.243122

>  <SCORE.INTRA>
-2.87986

>  <SCORE.INTRA.DIHEDRAL>
-6.81847

>  <SCORE.INTRA.DIHEDRAL.0>
7.18044

>  <SCORE.INTRA.POLAR>
0

>  <SCORE.INTRA.POLAR.0>
0

>  <SCORE.INTRA.REPUL>
0

>  <SCORE.INTRA.REPUL.0>
0

>  <SCORE.INTRA.SOLV>
1.35043

>  <SCORE.INTRA.SOLV.lig_0>
-72.0615

>  <SCORE.INTRA.VDW>
-0.145837

>  <SCORE.INTRA.VDW.0>
-1.54792

>  <SCORE.INTRA.norm>
-0.130903

>  <SCORE.RESTR>
0

>  <SCORE.RESTR.CAVITY>
0

>  <SCORE.RESTR.norm>
0

>  <SCORE.SYSTEM>
0

>  <SCORE.SYSTEM.CONST>
0

>  <SCORE.SYSTEM.DIHEDRAL>
0

>  <SCORE.SYSTEM.SOLV>
0

>  <SCORE.SYSTEM.norm>
0

>  <SCORE.heavy>
22

>  <SCORE.norm>
-0.374025

>  <RMSD>
33.127

$$$$
lig.pdb
 OpenBabel11021811523D
libRbt.so/2013.1/901 2013/11/27
 22 23  0  0  0  0  0  0  0  0999 V2000
    9.7308  -17.8081   -4.2234 C   0  0  1  0  0  0  0  0  0  0  0  0
    7.6063  -16.8300   -3.3412 C   0  0  1  0  0  0  0  0  0  0  0  0
    7.9294  -15.2284   -3.4811 C   0  0  1  0  0  0  0  0  0  0  0  0
    6.5195  -14.4582   -3.6001 C   0  0  2  0  0  0  0  0  0  0  0  0
   10.9972  -18.7147   -3.8792 C   0  0  1  0  0  0  0  0  0  0  0  0
   11.9496  -17.9726   -2.8626 C   0  0  2  0  0  0  0  0  0  0  0  0
   12.4765  -16.6223   -3.5565 C   0  0  1  0  0  0  0  0  0  0  0  0
   11.2327  -15.6306   -3.8636 C   0  0  1  0  0  0  0  0  0  0  0  0
   11.6507  -14.2894   -4.5276 C   0  0  0  0  0  0  0  0  0  0  0  0
    5.8033  -14.9632   -4.9469 C   0  0  1  0  0  0  0  0  0  0  0  0
    5.5158  -16.5405   -4.7791 C   0  0  0  0  0  0  0  0  0  0  0  0
    6.8760  -17.3417   -4.6060 C   0  0  2  0  0  0  0  0  0  0  0  0
   13.3894  -15.8807   -2.6801 F   0  0  0  0  0  0  0  0  0  0  0  0
   10.4276  -20.0270   -3.3196 N   0  0  0  0  0  0  0  0  0  0  0  0
   10.5803  -13.3881   -4.7514 N   0  0  0  0  0  0  0  0  0  0  0  0
    4.4746  -14.2937   -5.1132 N   0  0  0  0  0  0  0  0  0  0  0  0
    6.6287  -18.7705   -4.4368 N   0  0  0  0  0  0  0  0  0  0  0  0
    8.7764  -17.6117   -3.2575 O   0  0  0  0  0  0  0  0  0  0  0  0
    8.6242  -14.7839   -2.2337 O   0  0  0  0  0  0  0  0  0  0  0  0
    6.7843  -13.1014   -3.7208 O   0  0  0  0  0  0  0  0  0  0  0  0
   12.8650  -18.6812   -2.6499 O   0  0  0  0  0  0  0  0  0  0  0  0
   10.2285  -16.4325   -4.7730 O   0  0  0  0  0  0  0  0  0  0  0  0
  1  5  1  0  0  0  0
  1 18  1  1  0  0  0
  2 18  1  6  0  0  0
  2  3  1  0  0  0  0
  2 12  1  0  0  0  0
  3 19  1  1  0  0  0
  3  4  1  0  0  0  0
  4 20  1  6  0  0  0
  4 10  1  0  0  0  0
  5  6  1  0  0  0  0
  5 14  1  1  0  0  0
  6 21  1  6  0  0  0
  7 13  1  1  0  0  0
  7  6  1  0  0  0  0
  8  9  1  6  0  0  0
  8  7  1  0  0  0  0
 10 16  1  1  0  0  0
 11 10  1  0  0  0  0
 12 17  1  1  0  0  0
 12 11  1  0  0  0  0
 15  9  1  0  0  0  0
 22  8  1  0  0  0  0
 22  1  1  0  0  0  0
M  END
>  <CHROM.1>
178.45566256,-66.29052851,-177.49929150,9.21796330,-16.31388543,-3.81094181
0.35188827,0.16087341,3.09561711

>  <Name>
lig.pdb

>  <RI>
0

>  <Rbt.Current_Directory>
/home/itssahil/PROJECTS/Mol_Feturizer/New_Systems/rnas/5bxk

>  <Rbt.Executable>
rbdock ($Id: //depot/dev/client3/rdock/2013.1/src/exe/rbdock.cxx#4 $)

>  <Rbt.Library>
libRbt.so (2013.1, Build901 2013/11/27)

>  <Rbt.Parameter_File>
/export/apps/rDock/src/rDock_2013.1_src/data/scripts/dock_solv.prm

>  <Rbt.Receptor>
prm/blind_docking_100.prm

>  <SCORE>
-8.35334

>  <SCORE.INTER>
-5.50042

>  <SCORE.INTER.CONST>
1

>  <SCORE.INTER.POLAR>
0

>  <SCORE.INTER.ROT>
3

>  <SCORE.INTER.SOLV>
18.5417

>  <SCORE.INTER.VDW>
-15.4475

>  <SCORE.INTER.norm>
-0.250019

>  <SCORE.INTRA>
-2.85291

>  <SCORE.INTRA.DIHEDRAL>
-6.81708

>  <SCORE.INTRA.DIHEDRAL.0>
7.18044

>  <SCORE.INTRA.POLAR>
0

>  <SCORE.INTRA.POLAR.0>
0

>  <SCORE.INTRA.REPUL>
0

>  <SCORE.INTRA.REPUL.0>
0

>  <SCORE.INTRA.SOLV>
1.38583

>  <SCORE.INTRA.SOLV.lig_0>
-72.0615

>  <SCORE.INTRA.VDW>
-0.13729

>  <SCORE.INTRA.VDW.0>
-1.54792

>  <SCORE.INTRA.norm>
-0.129678

>  <SCORE.RESTR>
0

>  <SCORE.RESTR.CAVITY>
0

>  <SCORE.RESTR.norm>
0

>  <SCORE.SYSTEM>
0

>  <SCORE.SYSTEM.CONST>
0

>  <SCORE.SYSTEM.DIHEDRAL>
0

>  <SCORE.SYSTEM.SOLV>
0

>  <SCORE.SYSTEM.norm>
0

>  <SCORE.heavy>
22

>  <SCORE.norm>
-0.379697

>  <RMSD>
33.146

$$$$
lig.pdb
 OpenBabel11021811523D
libRbt.so/2013.1/901 2013/11/27
 22 23  0  0  0  0  0  0  0  0999 V2000
    8.9476  -17.8394   -3.5508 C   0  0  1  0  0  0  0  0  0  0  0  0
   11.1190  -17.0668   -4.5186 C   0  0  1  0  0  0  0  0  0  0  0  0
   10.7296  -15.4901   -4.7461 C   0  0  1  0  0  0  0  0  0  0  0  0
   12.1042  -14.6506   -4.7743 C   0  0  2  0  0  0  0  0  0  0  0  0
    7.7499  -18.8837   -3.6891 C   0  0  1  0  0  0  0  0  0  0  0  0
    6.8757  -18.5583   -4.9624 C   0  0  2  0  0  0  0  0  0  0  0  0
    6.2415  -17.0931   -4.7796 C   0  0  1  0  0  0  0  0  0  0  0  0
    7.4176  -15.9813   -4.7053 C   0  0  1  0  0  0  0  0  0  0  0  0
    6.8950  -14.5274   -4.5392 C   0  0  0  0  0  0  0  0  0  0  0  0
   12.8001  -14.8115   -3.3349 C   0  0  1  0  0  0  0  0  0  0  0  0
   13.1537  -16.3722   -3.1408 C   0  0  0  0  0  0  0  0  0  0  0  0
   11.8316  -17.2516   -3.1574 C   0  0  2  0  0  0  0  0  0  0  0  0
    5.3933  -16.7216   -5.9171 F   0  0  0  0  0  0  0  0  0  0  0  0
    8.4124  -20.2682   -3.7536 N   0  0  0  0  0  0  0  0  0  0  0  0
    6.1150  -14.3148   -3.3753 N   0  0  0  0  0  0  0  0  0  0  0  0
   14.0962  -14.0631   -3.2961 N   0  0  0  0  0  0  0  0  0  0  0  0
   12.1393  -18.6698   -2.9986 N   0  0  0  0  0  0  0  0  0  0  0  0
    9.9832  -17.8990   -4.4489 O   0  0  0  0  0  0  0  0  0  0  0  0
   10.0546  -15.3653   -6.0747 O   0  0  0  0  0  0  0  0  0  0  0  0
   11.7832  -13.3141   -4.9645 O   0  0  0  0  0  0  0  0  0  0  0  0
    6.0082  -19.3523   -5.0112 O   0  0  0  0  0  0  0  0  0  0  0  0
    8.3556  -16.3938   -3.5101 O   0  0  0  0  0  0  0  0  0  0  0  0
  1  5  1  0  0  0  0
  1 18  1  6  0  0  0
  2 18  1  1  0  0  0
  2  3  1  0  0  0  0
  2 12  1  0  0  0  0
  3 19  1  6  0  0  0
  3  4  1  0  0  0  0
  4 20  1  1  0  0  0
  4 10  1  0  0  0  0
  5  6  1  0  0  0  0
  5 14  1  6  0  0  0
  6 21  1  1  0  0  0
  7 13  1  6  0  0  0
  7  6  1  0  0  0  0
  8  9  1  1  0  0  0
  8  7  1  0  0  0  0
 10 16  1  6  0  0  0
 11 10  1  0  0  0  0
 12 17  1  6  0  0  0
 12 11  1  0  0  0  0
 15  9  1  0  0  0  0
 22  8  1  0  0  0  0
 22  1  1  0  0  0  0
M  END
>  <CHROM.1>
178.95660804,-59.86346784,59.30338117,9.38821992,-16.57841560,-4.28371106
-2.80852929,-0.20276739,-0.17441815

>  <Name>
lig.pdb

>  <RI>
0

>  <Rbt.Current_Directory>
/home/itssahil/PROJECTS/Mol_Feturizer/New_Systems/rnas/5bxk

>  <Rbt.Executable>
rbdock ($Id: //depot/dev/client3/rdock/2013.1/src/exe/rbdock.cxx#4 $)

>  <Rbt.Library>
libRbt.so (2013.1, Build901 2013/11/27)

>  <Rbt.Parameter_File>
/export/apps/rDock/src/rDock_2013.1_src/data/scripts/dock_solv.prm

>  <Rbt.Receptor>
prm/blind_docking_100.prm

>  <SCORE>
-8.40575

>  <SCORE.INTER>
-5.20796

>  <SCORE.INTER.CONST>
1

>  <SCORE.INTER.POLAR>
0

>  <SCORE.INTER.ROT>
3

>  <SCORE.INTER.SOLV>
15.9303

>  <SCORE.INTER.VDW>
-14.3821

>  <SCORE.INTER.norm>
-0.236726

>  <SCORE.INTRA>
-3.19779

>  <SCORE.INTRA.DIHEDRAL>
-7.03815

>  <SCORE.INTRA.DIHEDRAL.0>
7.18044

>  <SCORE.INTRA.POLAR>
0

>  <SCORE.INTRA.POLAR.0>
0

>  <SCORE.INTRA.REPUL>
0

>  <SCORE.INTRA.REPUL.0>
0

>  <SCORE.INTRA.SOLV>
0.587467

>  <SCORE.INTRA.SOLV.lig_0>
-72.0615

>  <SCORE.INTRA.VDW>
0.0275534

>  <SCORE.INTRA.VDW.0>
-1.54792

>  <SCORE.INTRA.norm>
-0.145354

>  <SCORE.RESTR>
0

>  <SCORE.RESTR.CAVITY>
0

>  <SCORE.RESTR.norm>
0

>  <SCORE.SYSTEM>
0

>  <SCORE.SYSTEM.CONST>
0

>  <SCORE.SYSTEM.DIHEDRAL>
0

>  <SCORE.SYSTEM.SOLV>
0

>  <SCORE.SYSTEM.norm>
0

>  <SCORE.heavy>
22

>  <SCORE.norm>
-0.38208

>  <RMSD>
33.166

$$$$
lig.pdb
 OpenBabel11021811523D
libRbt.so/2013.1/901 2013/11/27
 22 23  0  0  0  0  0  0  0  0999 V2000
   10.7053  -15.3267   -4.6757 C   0  0  1  0  0  0  0  0  0  0  0  0
   11.1731  -17.3943   -3.3511 C   0  0  1  0  0  0  0  0  0  0  0  0
    9.8361  -18.2024   -3.8495 C   0  0  1  0  0  0  0  0  0  0  0  0
   10.1044  -19.7736   -3.6162 C   0  0  2  0  0  0  0  0  0  0  0  0
   10.8239  -13.7362   -4.6966 C   0  0  1  0  0  0  0  0  0  0  0  0
    9.7194  -13.0864   -3.7750 C   0  0  2  0  0  0  0  0  0  0  0  0
    8.2758  -13.4868   -4.3563 C   0  0  1  0  0  0  0  0  0  0  0  0
    8.0739  -15.0930   -4.2914 C   0  0  1  0  0  0  0  0  0  0  0  0
    6.6957  -15.5727   -4.8251 C   0  0  0  0  0  0  0  0  0  0  0  0
   11.3443  -20.1971   -4.5465 C   0  0  1  0  0  0  0  0  0  0  0  0
   12.6333  -19.3735   -4.0380 C   0  0  0  0  0  0  0  0  0  0  0  0
   12.3984  -17.8112   -4.1994 C   0  0  2  0  0  0  0  0  0  0  0  0
    7.1889  -12.9017   -3.5640 F   0  0  0  0  0  0  0  0  0  0  0  0
   12.2541  -13.4211   -4.2330 N   0  0  0  0  0  0  0  0  0  0  0  0
    6.5101  -16.9771   -4.7888 N   0  0  0  0  0  0  0  0  0  0  0  0
   11.6575  -21.6502   -4.3677 N   0  0  0  0  0  0  0  0  0  0  0  0
   13.5528  -17.0526   -3.7271 N   0  0  0  0  0  0  0  0  0  0  0  0
   11.0621  -16.0011   -3.5354 O   0  0  0  0  0  0  0  0  0  0  0  0
    8.6872  -17.7717   -2.9946 O   0  0  0  0  0  0  0  0  0  0  0  0
    8.9776  -20.4653   -4.0376 O   0  0  0  0  0  0  0  0  0  0  0  0
    9.8496  -11.9181   -3.8327 O   0  0  0  0  0  0  0  0  0  0  0  0
    9.2590  -15.7314   -5.1077 O   0  0  0  0  0  0  0  0  0  0  0  0
  1  5  1  0  0  0  0
  1 18  1  1  0  0  0
  2 18  1  6  0  0  0
  2  3  1  0  0  0  0
  2 12  1  0  0  0  0
  3 19  1  1  0  0  0
  3  4  1  0  0  0  0
  4 20  1  6  0  0  0
  4 10  1  0  0  0  0
  5  6  1  0  0  0  0
  5 14  1  1  0  0  0
  6 21  1  6  0  0  0
  7 13  1  1  0  0  0
  7  6  1  0  0  0  0
  8  9  1  6  0  0  0
  8  7  1  0  0  0  0
 10 16  1  1  0  0  0
 11 10  1  0  0  0  0
 12 17  1  1  0  0  0
 12 11  1  0  0  0  0
 15  9  1  0  0  0  0
 22  8  1  0  0  0  0
 22  1  1  0  0  0  0
M  END
>  <CHROM.1>
-172.47542559,-51.04235950,179.32242832,9.96865080,-16.43922743,-4.09342234
-1.91757882,0.04252999,-3.13952648

>  <Name>
lig.pdb

>  <RI>
0

>  <Rbt.Current_Directory>
/home/itssahil/PROJECTS/Mol_Feturizer/New_Systems/rnas/5bxk

>  <Rbt.Executable>
rbdock ($Id: //depot/dev/client3/rdock/2013.1/src/exe/rbdock.cxx#4 $)

>  <Rbt.Library>
libRbt.so (2013.1, Build901 2013/11/27)

>  <Rbt.Parameter_File>
/export/apps/rDock/src/rDock_2013.1_src/data/scripts/dock_solv.prm

>  <Rbt.Receptor>
prm/blind_docking_80.prm

>  <SCORE>
-8.41888

>  <SCORE.INTER>
-5.89609

>  <SCORE.INTER.CONST>
1

>  <SCORE.INTER.POLAR>
0

>  <SCORE.INTER.ROT>
3

>  <SCORE.INTER.SOLV>
12.7377

>  <SCORE.INTER.VDW>
-13.7766

>  <SCORE.INTER.norm>
-0.268004

>  <SCORE.INTRA>
-2.52279

>  <SCORE.INTRA.DIHEDRAL>
-6.38923

>  <SCORE.INTRA.DIHEDRAL.0>
7.18044

>  <SCORE.INTRA.POLAR>
0

>  <SCORE.INTRA.POLAR.0>
0

>  <SCORE.INTRA.REPUL>
0

>  <SCORE.INTRA.REPUL.0>
0

>  <SCORE.INTRA.SOLV>
1.69053

>  <SCORE.INTRA.SOLV.lig_0>
-72.0615

>  <SCORE.INTRA.VDW>
-0.173437

>  <SCORE.INTRA.VDW.0>
-1.54792

>  <SCORE.INTRA.norm>
-0.114672

>  <SCORE.RESTR>
0

>  <SCORE.RESTR.CAVITY>
0

>  <SCORE.RESTR.norm>
0

>  <SCORE.SYSTEM>
0

>  <SCORE.SYSTEM.CONST>
0

>  <SCORE.SYSTEM.DIHEDRAL>
0

>  <SCORE.SYSTEM.SOLV>
0

>  <SCORE.SYSTEM.norm>
0

>  <SCORE.heavy>
22

>  <SCORE.norm>
-0.382676

>  <RMSD>
33.174

$$$$
lig.pdb
 OpenBabel11021811523D
libRbt.so/2013.1/901 2013/11/27
 22 23  0  0  0  0  0  0  0  0999 V2000
   10.8652  -16.2103   -4.3833 C   0  0  1  0  0  0  0  0  0  0  0  0
   12.0968  -18.2712   -3.6874 C   0  0  1  0  0  0  0  0  0  0  0  0
   10.9365  -19.3244   -4.1707 C   0  0  1  0  0  0  0  0  0  0  0  0
   11.6392  -20.7595   -4.3750 C   0  0  2  0  0  0  0  0  0  0  0  0
   10.6295  -14.6664   -4.0598 C   0  0  1  0  0  0  0  0  0  0  0  0
    9.6377  -14.5006   -2.8432 C   0  0  2  0  0  0  0  0  0  0  0  0
    8.2239  -15.1463   -3.2515 C   0  0  1  0  0  0  0  0  0  0  0  0
    8.3932  -16.7346   -3.5225 C   0  0  1  0  0  0  0  0  0  0  0  0
    7.0693  -17.4474   -3.9142 C   0  0  0  0  0  0  0  0  0  0  0  0
   12.7234  -20.6055   -5.5510 C   0  0  1  0  0  0  0  0  0  0  0  0
   13.8365  -19.5540   -5.0473 C   0  0  0  0  0  0  0  0  0  0  0  0
   13.1826  -18.1315   -4.7812 C   0  0  2  0  0  0  0  0  0  0  0  0
    7.2346  -15.0140   -2.1766 F   0  0  0  0  0  0  0  0  0  0  0  0
   12.0234  -14.0836   -3.7817 N   0  0  0  0  0  0  0  0  0  0  0  0
    7.1875  -18.8490   -4.0867 N   0  0  0  0  0  0  0  0  0  0  0  0
   13.4270  -21.9061   -5.7848 N   0  0  0  0  0  0  0  0  0  0  0  0
   14.1777  -17.1735   -4.3088 N   0  0  0  0  0  0  0  0  0  0  0  0
   11.5982  -16.9656   -3.5031 O   0  0  0  0  0  0  0  0  0  0  0  0
    9.9207  -19.4300   -3.0783 O   0  0  0  0  0  0  0  0  0  0  0  0
   10.6638  -21.6568   -4.7861 O   0  0  0  0  0  0  0  0  0  0  0  0
    9.4963  -13.3477   -2.6533 O   0  0  0  0  0  0  0  0  0  0  0  0
    9.4823  -16.8879   -4.6489 O   0  0  0  0  0  0  0  0  0  0  0  0
  1  5  1  0  0  0  0
  1 18  1  1  0  0  0
  2 18  1  6  0  0  0
  2  3  1  0  0  0  0
  2 12  1  0  0  0  0
  3 19  1  1  0  0  0
  3  4  1  0  0  0  0
  4 20  1  6  0  0  0
  4 10  1  0  0  0  0
  5  6  1  0  0  0  0
  5 14  1  1  0  0  0
  6 21  1  6  0  0  0
  7 13  1  1  0  0  0
  7  6  1  0  0  0  0
  8  9  1  6  0  0  0
  8  7  1  0  0  0  0
 10 16  1  1  0  0  0
 11 10  1  0  0  0  0
 12 17  1  1  0  0  0
 12 11  1  0  0  0  0
 15  9  1  0  0  0  0
 22  8  1  0  0  0  0
 22  1  1  0  0  0  0
M  END
>  <CHROM.1>
-169.32958308,-51.93515028,-176.88434236,10.58301399,-17.54206083,-3.97825038
-2.16754729,-0.18020734,-2.93581631

>  <Name>
lig.pdb

>  <RI>
0

>  <Rbt.Current_Directory>
/home/itssahil/PROJECTS/Mol_Feturizer/New_Systems/rnas/5bxk

>  <Rbt.Executable>
rbdock ($Id: //depot/dev/client3/rdock/2013.1/src/exe/rbdock.cxx#4 $)

>  <Rbt.Library>
libRbt.so (2013.1, Build901 2013/11/27)

>  <Rbt.Parameter_File>
/export/apps/rDock/src/rDock_2013.1_src/data/scripts/dock_solv.prm

>  <Rbt.Receptor>
prm/blind_docking_60.prm

>  <SCORE>
-6.57225

>  <SCORE.INTER>
-4.12477

>  <SCORE.INTER.CONST>
1

>  <SCORE.INTER.POLAR>
0

>  <SCORE.INTER.ROT>
3

>  <SCORE.INTER.SOLV>
14.1379

>  <SCORE.INTER.VDW>
-13.0625

>  <SCORE.INTER.norm>
-0.18749

>  <SCORE.INTRA>
-2.44748

>  <SCORE.INTRA.DIHEDRAL>
-6.16615

>  <SCORE.INTRA.DIHEDRAL.0>
7.18044

>  <SCORE.INTRA.POLAR>
0

>  <SCORE.INTRA.POLAR.0>
0

>  <SCORE.INTRA.REPUL>
0

>  <SCORE.INTRA.REPUL.0>
0

>  <SCORE.INTRA.SOLV>
1.69326

>  <SCORE.INTRA.SOLV.lig_0>
-72.0615

>  <SCORE.INTRA.VDW>
-0.211033

>  <SCORE.INTRA.VDW.0>
-1.54792

>  <SCORE.INTRA.norm>
-0.111249

>  <SCORE.RESTR>
0

>  <SCORE.RESTR.CAVITY>
0

>  <SCORE.RESTR.norm>
0

>  <SCORE.SYSTEM>
0

>  <SCORE.SYSTEM.CONST>
0

>  <SCORE.SYSTEM.DIHEDRAL>
0

>  <SCORE.SYSTEM.SOLV>
0

>  <SCORE.SYSTEM.norm>
0

>  <SCORE.heavy>
22

>  <SCORE.norm>
-0.298739

>  <RMSD>
33.185

$$$$
lig.pdb
 OpenBabel11021811523D
libRbt.so/2013.1/901 2013/11/27
 22 23  0  0  0  0  0  0  0  0999 V2000
   11.4141  -21.5512   -3.0885 C   0  0  1  0  0  0  0  0  0  0  0  0
   10.4462  -19.2763   -3.4581 C   0  0  1  0  0  0  0  0  0  0  0  0
   11.7489  -18.3473   -3.8177 C   0  0  1  0  0  0  0  0  0  0  0  0
   11.3747  -16.8245   -3.4488 C   0  0  2  0  0  0  0  0  0  0  0  0
   11.6439  -22.9914   -3.7344 C   0  0  1  0  0  0  0  0  0  0  0  0
   10.3106  -23.8353   -3.6945 C   0  0  2  0  0  0  0  0  0  0  0  0
    9.8870  -24.0395   -2.1579 C   0  0  1  0  0  0  0  0  0  0  0  0
    9.5712  -22.6066   -1.4709 C   0  0  1  0  0  0  0  0  0  0  0  0
    9.1410  -22.7078    0.0188 C   0  0  0  0  0  0  0  0  0  0  0  0
   10.1478  -16.3852   -4.3890 C   0  0  1  0  0  0  0  0  0  0  0  0
    8.8937  -17.3278   -4.0186 C   0  0  0  0  0  0  0  0  0  0  0  0
    9.2312  -18.8507   -4.3167 C   0  0  2  0  0  0  0  0  0  0  0  0
    8.6619  -24.8364   -2.0326 F   0  0  0  0  0  0  0  0  0  0  0  0
   12.1463  -22.7299   -5.1623 N   0  0  0  0  0  0  0  0  0  0  0  0
    7.9119  -23.3811    0.2290 N   0  0  0  0  0  0  0  0  0  0  0  0
    9.7383  -14.9771   -4.0875 N   0  0  0  0  0  0  0  0  0  0  0  0
    8.1087  -19.7174   -3.9703 N   0  0  0  0  0  0  0  0  0  0  0  0
   10.6505  -20.6362   -3.7684 O   0  0  0  0  0  0  0  0  0  0  0  0
   12.8883  -18.7917   -2.9572 O   0  0  0  0  0  0  0  0  0  0  0  0
   12.4718  -16.0309   -3.7522 O   0  0  0  0  0  0  0  0  0  0  0  0
   10.5388  -24.8848   -4.1759 O   0  0  0  0  0  0  0  0  0  0  0  0
   10.8688  -21.7303   -1.6350 O   0  0  0  0  0  0  0  0  0  0  0  0
  1  5  1  0  0  0  0
  1 18  1  6  0  0  0
  2 18  1  6  0  0  0
  2  3  1  0  0  0  0
  2 12  1  0  0  0  0
  3 19  1  1  0  0  0
  3  4  1  0  0  0  0
  4 20  1  6  0  0  0
  4 10  1  0  0  0  0
  5  6  1  0  0  0  0
  5 14  1  6  0  0  0
  6 21  1  1  0  0  0
  7 13  1  6  0  0  0
  7  6  1  0  0  0  0
  8  9  1  1  0  0  0
  8  7  1  0  0  0  0
 10 16  1  1  0  0  0
 11 10  1  0  0  0  0
 12 17  1  1  0  0  0
 12 11  1  0  0  0  0
 15  9  1  0  0  0  0
 22  8  1  0  0  0  0
 22  1  1  0  0  0  0
M  END
>  <CHROM.1>
-172.28179385,74.79005459,-64.80648500,10.35609674,-20.63248010,-3.11053461
-1.75911166,0.64794810,-0.12242142

>  <Name>
lig.pdb

>  <RI>
0

>  <Rbt.Current_Directory>
/home/itssahil/PROJECTS/Mol_Feturizer/New_Systems/rnas/5bxk

>  <Rbt.Executable>
rbdock ($Id: //depot/dev/client3/rdock/2013.1/src/exe/rbdock.cxx#4 $)

>  <Rbt.Library>
libRbt.so (2013.1, Build901 2013/11/27)

>  <Rbt.Parameter_File>
/export/apps/rDock/src/rDock_2013.1_src/data/scripts/dock_solv.prm

>  <Rbt.Receptor>
prm/blind_docking_80.prm

>  <SCORE>
-5.8582

>  <SCORE.INTER>
-2.70561

>  <SCORE.INTER.CONST>
1

>  <SCORE.INTER.POLAR>
0

>  <SCORE.INTER.ROT>
3

>  <SCORE.INTER.SOLV>
12.2645

>  <SCORE.INTER.VDW>
-11.4919

>  <SCORE.INTER.norm>
-0.122982

>  <SCORE.INTRA>
-3.1526

>  <SCORE.INTRA.DIHEDRAL>
-5.65713

>  <SCORE.INTRA.DIHEDRAL.0>
7.18044

>  <SCORE.INTRA.POLAR>
0

>  <SCORE.INTRA.POLAR.0>
0

>  <SCORE.INTRA.REPUL>
0

>  <SCORE.INTRA.REPUL.0>
0

>  <SCORE.INTRA.SOLV>
-0.569157

>  <SCORE.INTRA.SOLV.lig_0>
-72.0615

>  <SCORE.INTRA.VDW>
-0.0394531

>  <SCORE.INTRA.VDW.0>
-1.54792

>  <SCORE.INTRA.norm>
-0.1433

>  <SCORE.RESTR>
0

>  <SCORE.RESTR.CAVITY>
0

>  <SCORE.RESTR.norm>
0

>  <SCORE.SYSTEM>
0

>  <SCORE.SYSTEM.CONST>
0

>  <SCORE.SYSTEM.DIHEDRAL>
0

>  <SCORE.SYSTEM.SOLV>
0

>  <SCORE.SYSTEM.norm>
0

>  <SCORE.heavy>
22

>  <SCORE.norm>
-0.266282

>  <RMSD>
33.214

$$$$
lig.pdb
 OpenBabel11021811523D
libRbt.so/2013.1/901 2013/11/27
 22 23  0  0  0  0  0  0  0  0999 V2000
   10.7544  -15.7976   -4.5441 C   0  0  1  0  0  0  0  0  0  0  0  0
   10.2751  -17.9492   -3.3655 C   0  0  1  0  0  0  0  0  0  0  0  0
    8.6730  -17.9713   -3.7148 C   0  0  1  0  0  0  0  0  0  0  0  0
    8.1683  -19.4951   -3.5785 C   0  0  2  0  0  0  0  0  0  0  0  0
   11.6675  -14.4898   -4.5432 C   0  0  1  0  0  0  0  0  0  0  0  0
   11.1573  -13.4589   -3.4623 C   0  0  2  0  0  0  0  0  0  0  0  0
    9.6597  -13.0216   -3.8475 C   0  0  1  0  0  0  0  0  0  0  0  0
    8.6723  -14.3050   -3.7936 C   0  0  1  0  0  0  0  0  0  0  0  0
    7.1949  -13.9732   -4.1426 C   0  0  0  0  0  0  0  0  0  0  0  0
    8.9519  -20.3657   -4.6785 C   0  0  1  0  0  0  0  0  0  0  0  0
   10.5207  -20.3081   -4.3123 C   0  0  0  0  0  0  0  0  0  0  0  0
   11.0571  -18.8150   -4.3822 C   0  0  2  0  0  0  0  0  0  0  0  0
    9.1175  -12.0433   -2.8985 F   0  0  0  0  0  0  0  0  0  0  0  0
   13.0974  -14.9827   -4.2749 N   0  0  0  0  0  0  0  0  0  0  0  0
    6.3103  -15.0768   -4.0550 N   0  0  0  0  0  0  0  0  0  0  0  0
    8.5382  -21.8022   -4.5977 N   0  0  0  0  0  0  0  0  0  0  0  0
   12.4738  -18.7468   -4.0367 N   0  0  0  0  0  0  0  0  0  0  0  0
   10.8352  -16.6607   -3.4806 O   0  0  0  0  0  0  0  0  0  0  0  0
    7.9648  -17.1305   -2.7011 O   0  0  0  0  0  0  0  0  0  0  0  0
    6.8129  -19.5229   -3.8746 O   0  0  0  0  0  0  0  0  0  0  0  0
   11.8602  -12.5161   -3.5096 O   0  0  0  0  0  0  0  0  0  0  0  0
    9.2683  -15.3764   -4.7811 O   0  0  0  0  0  0  0  0  0  0  0  0
  1  5  1  0  0  0  0
  1 18  1  1  0  0  0
  2 18  1  6  0  0  0
  2  3  1  0  0  0  0
  2 12  1  0  0  0  0
  3 19  1  1  0  0  0
  3  4  1  0  0  0  0
  4 20  1  6  0  0  0
  4 10  1  0  0  0  0
  5  6  1  0  0  0  0
  5 14  1  1  0  0  0
  6 21  1  6  0  0  0
  7 13  1  1  0  0  0
  7  6  1  0  0  0  0
  8  9  1  6  0  0  0
  8  7  1  0  0  0  0
 10 16  1  1  0  0  0
 11 10  1  0  0  0  0
 12 17  1  1  0  0  0
 12 11  1  0  0  0  0
 15  9  1  0  0  0  0
 22  8  1  0  0  0  0
 22  1  1  0  0  0  0
M  END
>  <CHROM.1>
-170.03951053,-51.87367774,-177.94003381,9.65648591,-16.45490910,-3.90853816
-1.40082585,-0.06776573,-3.06447019

>  <Name>
lig.pdb

>  <RI>
0

>  <Rbt.Current_Directory>
/home/itssahil/PROJECTS/Mol_Feturizer/New_Systems/rnas/5bxk

>  <Rbt.Executable>
rbdock ($Id: //depot/dev/client3/rdock/2013.1/src/exe/rbdock.cxx#4 $)

>  <Rbt.Library>
libRbt.so (2013.1, Build901 2013/11/27)

>  <Rbt.Parameter_File>
/export/apps/rDock/src/rDock_2013.1_src/data/scripts/dock_solv.prm

>  <Rbt.Receptor>
prm/blind_docking_40.prm

>  <SCORE>
-8.26694

>  <SCORE.INTER>
-5.79078

>  <SCORE.INTER.CONST>
1

>  <SCORE.INTER.POLAR>
0

>  <SCORE.INTER.ROT>
3

>  <SCORE.INTER.SOLV>
14.2599

>  <SCORE.INTER.VDW>
-14.2138

>  <SCORE.INTER.norm>
-0.263217

>  <SCORE.INTRA>
-2.47617

>  <SCORE.INTRA.DIHEDRAL>
-6.24754

>  <SCORE.INTRA.DIHEDRAL.0>
7.18044

>  <SCORE.INTRA.POLAR>
0

>  <SCORE.INTRA.POLAR.0>
0

>  <SCORE.INTRA.REPUL>
0

>  <SCORE.INTRA.REPUL.0>
0

>  <SCORE.INTRA.SOLV>
1.69497

>  <SCORE.INTRA.SOLV.lig_0>
-72.0615

>  <SCORE.INTRA.VDW>
-0.199879

>  <SCORE.INTRA.VDW.0>
-1.54792

>  <SCORE.INTRA.norm>
-0.112553

>  <SCORE.RESTR>
0

>  <SCORE.RESTR.CAVITY>
0

>  <SCORE.RESTR.norm>
0

>  <SCORE.SYSTEM>
0

>  <SCORE.SYSTEM.CONST>
0

>  <SCORE.SYSTEM.DIHEDRAL>
0

>  <SCORE.SYSTEM.SOLV>
0

>  <SCORE.SYSTEM.norm>
0

>  <SCORE.heavy>
22

>  <SCORE.norm>
-0.37577

>  <RMSD>
33.225

$$$$
lig.pdb
 OpenBabel11021811523D
libRbt.so/2013.1/901 2013/11/27
 22 23  0  0  0  0  0  0  0  0999 V2000
   11.1452  -15.7919   -4.6063 C   0  0  1  0  0  0  0  0  0  0  0  0
   10.9698  -17.9942   -3.4367 C   0  0  1  0  0  0  0  0  0  0  0  0
    9.4324  -18.2981   -3.9196 C   0  0  1  0  0  0  0  0  0  0  0  0
    9.1904  -19.8859   -3.7955 C   0  0  2  0  0  0  0  0  0  0  0  0
   11.8026  -14.3396   -4.5548 C   0  0  1  0  0  0  0  0  0  0  0  0
   11.0370  -13.4213   -3.5243 C   0  0  2  0  0  0  0  0  0  0  0  0
    9.5164  -13.2636   -4.0197 C   0  0  1  0  0  0  0  0  0  0  0  0
    8.7778  -14.7055   -4.0221 C   0  0  1  0  0  0  0  0  0  0  0  0
    7.2937  -14.6479   -4.4788 C   0  0  0  0  0  0  0  0  0  0  0  0
   10.2059  -20.6117   -4.8075 C   0  0  1  0  0  0  0  0  0  0  0  0
   11.7030  -20.2786   -4.3113 C   0  0  0  0  0  0  0  0  0  0  0  0
   11.9756  -18.7151   -4.3659 C   0  0  2  0  0  0  0  0  0  0  0  0
    8.7385  -12.4026   -3.1225 F   0  0  0  0  0  0  0  0  0  0  0  0
   13.2753  -14.5641   -4.1801 N   0  0  0  0  0  0  0  0  0  0  0  0
    6.6159  -15.8913   -4.4261 N   0  0  0  0  0  0  0  0  0  0  0  0
   10.0429  -22.0981   -4.7327 N   0  0  0  0  0  0  0  0  0  0  0  0
   13.3235  -18.3981   -3.9034 N   0  0  0  0  0  0  0  0  0  0  0  0
   11.3051  -16.6281   -3.5303 O   0  0  0  0  0  0  0  0  0  0  0  0
    8.5035  -17.5889   -2.9866 O   0  0  0  0  0  0  0  0  0  0  0  0
    7.8914  -20.1521   -4.2044 O   0  0  0  0  0  0  0  0  0  0  0  0
   11.5581  -12.3660   -3.5319 O   0  0  0  0  0  0  0  0  0  0  0  0
    9.6283  -15.6482   -4.9529 O   0  0  0  0  0  0  0  0  0  0  0  0
  1  5  1  0  0  0  0
  1 18  1  1  0  0  0
  2 18  1  6  0  0  0
  2  3  1  0  0  0  0
  2 12  1  0  0  0  0
  3 19  1  1  0  0  0
  3  4  1  0  0  0  0
  4 20  1  6  0  0  0
  4 10  1  0  0  0  0
  5  6  1  0  0  0  0
  5 14  1  1  0  0  0
  6 21  1  6  0  0  0
  7 13  1  1  0  0  0
  7  6  1  0  0  0  0
  8  9  1  6  0  0  0
  8  7  1  0  0  0  0
 10 16  1  1  0  0  0
 11 10  1  0  0  0  0
 12 17  1  1  0  0  0
 12 11  1  0  0  0  0
 15  9  1  0  0  0  0
 22  8  1  0  0  0  0
 22  1  1  0  0  0  0
M  END
>  <CHROM.1>
-170.73211548,-50.55874901,-177.18267023,10.13578826,-16.63744682,-4.04090607
-1.58672841,-0.00400114,-3.07682757

>  <Name>
lig.pdb

>  <RI>
0

>  <Rbt.Current_Directory>
/home/itssahil/PROJECTS/Mol_Feturizer/New_Systems/rnas/5bxk

>  <Rbt.Executable>
rbdock ($Id: //depot/dev/client3/rdock/2013.1/src/exe/rbdock.cxx#4 $)

>  <Rbt.Library>
libRbt.so (2013.1, Build901 2013/11/27)

>  <Rbt.Parameter_File>
/export/apps/rDock/src/rDock_2013.1_src/data/scripts/dock_solv.prm

>  <Rbt.Receptor>
prm/blind_docking_100.prm

>  <SCORE>
-7.83167

>  <SCORE.INTER>
-5.41796

>  <SCORE.INTER.CONST>
1

>  <SCORE.INTER.POLAR>
0

>  <SCORE.INTER.ROT>
3

>  <SCORE.INTER.SOLV>
12.2035

>  <SCORE.INTER.VDW>
-13.2798

>  <SCORE.INTER.norm>
-0.246271

>  <SCORE.INTRA>
-2.41371

>  <SCORE.INTRA.DIHEDRAL>
-6.18469

>  <SCORE.INTRA.DIHEDRAL.0>
7.18044

>  <SCORE.INTRA.POLAR>
0

>  <SCORE.INTRA.POLAR.0>
0

>  <SCORE.INTRA.REPUL>
0

>  <SCORE.INTRA.REPUL.0>
0

>  <SCORE.INTRA.SOLV>
1.68994

>  <SCORE.INTRA.SOLV.lig_0>
-72.0615

>  <SCORE.INTRA.VDW>
-0.166337

>  <SCORE.INTRA.VDW.0>
-1.54792

>  <SCORE.INTRA.norm>
-0.109714

>  <SCORE.RESTR>
0

>  <SCORE.RESTR.CAVITY>
0

>  <SCORE.RESTR.norm>
0

>  <SCORE.SYSTEM>
0

>  <SCORE.SYSTEM.CONST>
0

>  <SCORE.SYSTEM.DIHEDRAL>
0

>  <SCORE.SYSTEM.SOLV>
0

>  <SCORE.SYSTEM.norm>
0

>  <SCORE.heavy>
22

>  <SCORE.norm>
-0.355985

>  <RMSD>
33.231

$$$$
lig.pdb
 OpenBabel11021811523D
libRbt.so/2013.1/901 2013/11/27
 22 23  0  0  0  0  0  0  0  0999 V2000
   11.1710  -15.8486   -4.6094 C   0  0  1  0  0  0  0  0  0  0  0  0
   10.9647  -18.0390   -3.4229 C   0  0  1  0  0  0  0  0  0  0  0  0
    9.4210  -18.3223   -3.8983 C   0  0  1  0  0  0  0  0  0  0  0  0
    9.1545  -19.9052   -3.7617 C   0  0  2  0  0  0  0  0  0  0  0  0
   11.8165  -14.3911   -4.5543 C   0  0  1  0  0  0  0  0  0  0  0  0
   11.0287  -13.4745   -3.5391 C   0  0  2  0  0  0  0  0  0  0  0  0
    9.5146  -13.3304   -4.0577 C   0  0  1  0  0  0  0  0  0  0  0  0
    8.7869  -14.7779   -4.0650 C   0  0  1  0  0  0  0  0  0  0  0  0
    7.3094  -14.7334   -4.5440 C   0  0  0  0  0  0  0  0  0  0  0  0
   10.1550  -20.6542   -4.7717 C   0  0  1  0  0  0  0  0  0  0  0  0
   11.6589  -20.3411   -4.2831 C   0  0  0  0  0  0  0  0  0  0  0  0
   11.9558  -18.7825   -4.3502 C   0  0  2  0  0  0  0  0  0  0  0  0
    8.7168  -12.4717   -3.1758 F   0  0  0  0  0  0  0  0  0  0  0  0
   13.2851  -14.6029   -4.1567 N   0  0  0  0  0  0  0  0  0  0  0  0
    6.6718  -15.9979   -4.5947 N   0  0  0  0  0  0  0  0  0  0  0  0
    9.9689  -22.1372   -4.6854 N   0  0  0  0  0  0  0  0  0  0  0  0
   13.3101  -18.4834   -3.8947 N   0  0  0  0  0  0  0  0  0  0  0  0
   11.3211  -16.6791   -3.5277 O   0  0  0  0  0  0  0  0  0  0  0  0
    8.5067  -17.5917   -2.9674 O   0  0  0  0  0  0  0  0  0  0  0  0
    7.8501  -20.1538   -4.1642 O   0  0  0  0  0  0  0  0  0  0  0  0
   11.5418  -12.4153   -3.5433 O   0  0  0  0  0  0  0  0  0  0  0  0
    9.6583  -15.7178   -4.9792 O   0  0  0  0  0  0  0  0  0  0  0  0
  1  5  1  0  0  0  0
  1 18  1  1  0  0  0
  2 18  1  6  0  0  0
  2  3  1  0  0  0  0
  2 12  1  0  0  0  0
  3 19  1  1  0  0  0
  3  4  1  0  0  0  0
  4 20  1  6  0  0  0
  4 10  1  0  0  0  0
  5  6  1  0  0  0  0
  5 14  1  1  0  0  0
  6 21  1  6  0  0  0
  7 13  1  1  0  0  0
  7  6  1  0  0  0  0
  8  9  1  6  0  0  0
  8  7  1  0  0  0  0
 10 16  1  1  0  0  0
 11 10  1  0  0  0  0
 12 17  1  1  0  0  0
 12 11  1  0  0  0  0
 15  9  1  0  0  0  0
 22  8  1  0  0  0  0
 22  1  1  0  0  0  0
M  END
>  <CHROM.1>
-172.42895442,-50.58086126,178.16933830,10.12829287,-16.68996043,-4.04760135
-1.57663445,0.00911311,-3.08554820

>  <Name>
lig.pdb

>  <RI>
0

>  <Rbt.Current_Directory>
/home/itssahil/PROJECTS/Mol_Feturizer/New_Systems/rnas/5bxk

>  <Rbt.Executable>
rbdock ($Id: //depot/dev/client3/rdock/2013.1/src/exe/rbdock.cxx#4 $)

>  <Rbt.Library>
libRbt.so (2013.1, Build901 2013/11/27)

>  <Rbt.Parameter_File>
/export/apps/rDock/src/rDock_2013.1_src/data/scripts/dock_solv.prm

>  <Rbt.Receptor>
prm/blind_docking_40.prm

>  <SCORE>
-7.85586

>  <SCORE.INTER>
-5.37595

>  <SCORE.INTER.CONST>
1

>  <SCORE.INTER.POLAR>
0

>  <SCORE.INTER.ROT>
3

>  <SCORE.INTER.SOLV>
12.1649

>  <SCORE.INTER.VDW>
-13.2389

>  <SCORE.INTER.norm>
-0.244362

>  <SCORE.INTRA>
-2.47991

>  <SCORE.INTRA.DIHEDRAL>
-6.33552

>  <SCORE.INTRA.DIHEDRAL.0>
7.18044

>  <SCORE.INTRA.POLAR>
0

>  <SCORE.INTRA.POLAR.0>
0

>  <SCORE.INTRA.REPUL>
0

>  <SCORE.INTRA.REPUL.0>
0

>  <SCORE.INTRA.SOLV>
1.70808

>  <SCORE.INTRA.SOLV.lig_0>
-72.0615

>  <SCORE.INTRA.VDW>
-0.166186

>  <SCORE.INTRA.VDW.0>
-1.54792

>  <SCORE.INTRA.norm>
-0.112723

>  <SCORE.RESTR>
0

>  <SCORE.RESTR.CAVITY>
0

>  <SCORE.RESTR.norm>
0

>  <SCORE.SYSTEM>
0

>  <SCORE.SYSTEM.CONST>
0

>  <SCORE.SYSTEM.DIHEDRAL>
0

>  <SCORE.SYSTEM.SOLV>
0

>  <SCORE.SYSTEM.norm>
0

>  <SCORE.heavy>
22

>  <SCORE.norm>
-0.357085

>  <RMSD>
33.247

$$$$
lig.pdb
 OpenBabel11021811523D
libRbt.so/2013.1/901 2013/11/27
 22 23  0  0  0  0  0  0  0  0999 V2000
    8.2938  -17.8555   -3.6026 C   0  0  1  0  0  0  0  0  0  0  0  0
   10.6099  -17.5805   -4.5018 C   0  0  1  0  0  0  0  0  0  0  0  0
   10.6707  -15.9451   -4.3967 C   0  0  1  0  0  0  0  0  0  0  0  0
   12.2238  -15.5199   -4.3489 C   0  0  2  0  0  0  0  0  0  0  0  0
    6.9030  -18.6153   -3.7825 C   0  0  1  0  0  0  0  0  0  0  0  0
    6.1090  -18.0325   -5.0159 C   0  0  2  0  0  0  0  0  0  0  0  0
    5.7972  -16.4822   -4.7300 C   0  0  1  0  0  0  0  0  0  0  0  0
    7.1807  -15.6478   -4.6094 C   0  0  1  0  0  0  0  0  0  0  0  0
    6.9756  -14.1307   -4.3431 C   0  0  0  0  0  0  0  0  0  0  0  0
   12.8581  -16.1503   -3.0138 C   0  0  1  0  0  0  0  0  0  0  0  0
   12.7671  -17.7542   -3.1462 C   0  0  0  0  0  0  0  0  0  0  0  0
   11.2530  -18.2221   -3.2489 C   0  0  2  0  0  0  0  0  0  0  0  0
    5.0391  -15.8687   -5.8256 F   0  0  0  0  0  0  0  0  0  0  0  0
    7.2600  -20.1004   -3.9458 N   0  0  0  0  0  0  0  0  0  0  0  0
    6.1426  -13.8381   -3.2346 N   0  0  0  0  0  0  0  0  0  0  0  0
   14.3110  -15.8033   -2.9130 N   0  0  0  0  0  0  0  0  0  0  0  0
   11.1571  -19.6723   -3.3856 N   0  0  0  0  0  0  0  0  0  0  0  0
    9.2886  -18.0716   -4.5224 O   0  0  0  0  0  0  0  0  0  0  0  0
   10.0473  -15.3767   -5.6315 O   0  0  0  0  0  0  0  0  0  0  0  0
   12.2841  -14.1366   -4.2579 O   0  0  0  0  0  0  0  0  0  0  0  0
    5.0940  -18.6229   -5.0973 O   0  0  0  0  0  0  0  0  0  0  0  0
    8.0183  -16.3238   -3.4606 O   0  0  0  0  0  0  0  0  0  0  0  0
  1  5  1  0  0  0  0
  1 18  1  6  0  0  0
  2 18  1  1  0  0  0
  2  3  1  0  0  0  0
  2 12  1  0  0  0  0
  3 19  1  6  0  0  0
  3  4  1  0  0  0  0
  4 20  1  1  0  0  0
  4 10  1  0  0  0  0
  5  6  1  0  0  0  0
  5 14  1  6  0  0  0
  6 21  1  1  0  0  0
  7 13  1  6  0  0  0
  7  6  1  0  0  0  0
  8  9  1  1  0  0  0
  8  7  1  0  0  0  0
 10 16  1  6  0  0  0
 11 10  1  0  0  0  0
 12 17  1  6  0  0  0
 12 11  1  0  0  0  0
 15  9  1  0  0  0  0
 22  8  1  0  0  0  0
 22  1  1  0  0  0  0
M  END
>  <CHROM.1>
-175.21592908,-55.87116011,52.80385280,9.03143391,-16.77596482,-4.17876750
-3.08359143,-0.17317172,-0.09801800

>  <Name>
lig.pdb

>  <RI>
0

>  <Rbt.Current_Directory>
/home/itssahil/PROJECTS/Mol_Feturizer/New_Systems/rnas/5bxk

>  <Rbt.Executable>
rbdock ($Id: //depot/dev/client3/rdock/2013.1/src/exe/rbdock.cxx#4 $)

>  <Rbt.Library>
libRbt.so (2013.1, Build901 2013/11/27)

>  <Rbt.Parameter_File>
/export/apps/rDock/src/rDock_2013.1_src/data/scripts/dock_solv.prm

>  <Rbt.Receptor>
prm/blind_docking_80.prm

>  <SCORE>
-7.62134

>  <SCORE.INTER>
-4.7444

>  <SCORE.INTER.CONST>
1

>  <SCORE.INTER.POLAR>
0

>  <SCORE.INTER.ROT>
3

>  <SCORE.INTER.SOLV>
16.1268

>  <SCORE.INTER.VDW>
-14.1385

>  <SCORE.INTER.norm>
-0.215655

>  <SCORE.INTRA>
-2.87802

>  <SCORE.INTRA.DIHEDRAL>
-6.66939

>  <SCORE.INTRA.DIHEDRAL.0>
7.18044

>  <SCORE.INTRA.POLAR>
0

>  <SCORE.INTRA.POLAR.0>
0

>  <SCORE.INTRA.REPUL>
0

>  <SCORE.INTRA.REPUL.0>
0

>  <SCORE.INTRA.SOLV>
0.933775

>  <SCORE.INTRA.SOLV.lig_0>
-72.0615

>  <SCORE.INTRA.VDW>
-0.0102077

>  <SCORE.INTRA.VDW.0>
-1.54792

>  <SCORE.INTRA.norm>
-0.130819

>  <SCORE.RESTR>
0.001076

>  <SCORE.RESTR.CAVITY>
0.001076

>  <SCORE.RESTR.norm>
4.89091e-05

>  <SCORE.SYSTEM>
0

>  <SCORE.SYSTEM.CONST>
0

>  <SCORE.SYSTEM.DIHEDRAL>
0

>  <SCORE.SYSTEM.SOLV>
0

>  <SCORE.SYSTEM.norm>
0

>  <SCORE.heavy>
22

>  <SCORE.norm>
-0.346425

>  <RMSD>
33.248

$$$$
lig.pdb
 OpenBabel11021811523D
libRbt.so/2013.1/901 2013/11/27
 22 23  0  0  0  0  0  0  0  0999 V2000
    9.8317  -19.6652   -3.4043 C   0  0  1  0  0  0  0  0  0  0  0  0
    7.6370  -18.5125   -3.0830 C   0  0  1  0  0  0  0  0  0  0  0  0
    7.9940  -17.0561   -3.7469 C   0  0  1  0  0  0  0  0  0  0  0  0
    6.6086  -16.3914   -4.2305 C   0  0  2  0  0  0  0  0  0  0  0  0
   11.0372  -20.4133   -2.6755 C   0  0  1  0  0  0  0  0  0  0  0  0
   11.8928  -19.3914   -1.8299 C   0  0  2  0  0  0  0  0  0  0  0  0
   12.5155  -18.3014   -2.8331 C   0  0  1  0  0  0  0  0  0  0  0  0
   11.3302  -17.4607   -3.5494 C   0  0  1  0  0  0  0  0  0  0  0  0
   11.8413  -16.3717   -4.5330 C   0  0  0  0  0  0  0  0  0  0  0  0
    5.9854  -17.3416   -5.3667 C   0  0  1  0  0  0  0  0  0  0  0  0
    5.6624  -18.7650   -4.6825 C   0  0  0  0  0  0  0  0  0  0  0  0
    6.9938  -19.4405   -4.1412 C   0  0  2  0  0  0  0  0  0  0  0  0
   13.3464  -17.3219   -2.1246 F   0  0  0  0  0  0  0  0  0  0  0  0
   10.3868  -21.5075   -1.8156 N   0  0  0  0  0  0  0  0  0  0  0  0
   12.5614  -15.3179   -3.9172 N   0  0  0  0  0  0  0  0  0  0  0  0
    4.6829  -16.7868   -5.8535 N   0  0  0  0  0  0  0  0  0  0  0  0
    6.7130  -20.7238   -3.5044 N   0  0  0  0  0  0  0  0  0  0  0  0
    8.7858  -19.2030   -2.6460 O   0  0  0  0  0  0  0  0  0  0  0  0
    8.6020  -16.1975   -2.6842 O   0  0  0  0  0  0  0  0  0  0  0  0
    6.9021  -15.1586   -4.7958 O   0  0  0  0  0  0  0  0  0  0  0  0
   12.7670  -19.9937   -1.3216 O   0  0  0  0  0  0  0  0  0  0  0  0
   10.4107  -18.5085   -4.2810 O   0  0  0  0  0  0  0  0  0  0  0  0
  1  5  1  0  0  0  0
  1 18  1  1  0  0  0
  2 18  1  6  0  0  0
  2  3  1  0  0  0  0
  2 12  1  0  0  0  0
  3 19  1  1  0  0  0
  3  4  1  0  0  0  0
  4 20  1  6  0  0  0
  4 10  1  0  0  0  0
  5  6  1  0  0  0  0
  5 14  1  1  0  0  0
  6 21  1  6  0  0  0
  7 13  1  1  0  0  0
  7  6  1  0  0  0  0
  8  9  1  6  0  0  0
  8  7  1  0  0  0  0
 10 16  1  1  0  0  0
 11 10  1  0  0  0  0
 12 17  1  1  0  0  0
 12 11  1  0  0  0  0
 15  9  1  0  0  0  0
 22  8  1  0  0  0  0
 22  1  1  0  0  0  0
M  END
>  <CHROM.1>
179.45107175,-63.41193919,-65.58322604,9.36924727,-18.14188573,-3.46828284
0.27831462,0.27231035,2.80409789

>  <Name>
lig.pdb

>  <RI>
0

>  <Rbt.Current_Directory>
/home/itssahil/PROJECTS/Mol_Feturizer/New_Systems/rnas/5bxk

>  <Rbt.Executable>
rbdock ($Id: //depot/dev/client3/rdock/2013.1/src/exe/rbdock.cxx#4 $)

>  <Rbt.Library>
libRbt.so (2013.1, Build901 2013/11/27)

>  <Rbt.Parameter_File>
/export/apps/rDock/src/rDock_2013.1_src/data/scripts/dock_solv.prm

>  <Rbt.Receptor>
prm/blind_docking_40.prm

>  <SCORE>
-7.21758

>  <SCORE.INTER>
-4.06871

>  <SCORE.INTER.CONST>
1

>  <SCORE.INTER.POLAR>
0

>  <SCORE.INTER.ROT>
3

>  <SCORE.INTER.SOLV>
14.0626

>  <SCORE.INTER.VDW>
-13

>  <SCORE.INTER.norm>
-0.184941

>  <SCORE.INTRA>
-3.14887

>  <SCORE.INTRA.DIHEDRAL>
-6.87547

>  <SCORE.INTRA.DIHEDRAL.0>
7.18044

>  <SCORE.INTRA.POLAR>
0

>  <SCORE.INTRA.POLAR.0>
0

>  <SCORE.INTRA.REPUL>
0

>  <SCORE.INTRA.REPUL.0>
0

>  <SCORE.INTRA.SOLV>
0.469626

>  <SCORE.INTRA.SOLV.lig_0>
-72.0615

>  <SCORE.INTRA.VDW>
0.054053

>  <SCORE.INTRA.VDW.0>
-1.54792

>  <SCORE.INTRA.norm>
-0.14313

>  <SCORE.RESTR>
0

>  <SCORE.RESTR.CAVITY>
0

>  <SCORE.RESTR.norm>
0

>  <SCORE.SYSTEM>
0

>  <SCORE.SYSTEM.CONST>
0

>  <SCORE.SYSTEM.DIHEDRAL>
0

>  <SCORE.SYSTEM.SOLV>
0

>  <SCORE.SYSTEM.norm>
0

>  <SCORE.heavy>
22

>  <SCORE.norm>
-0.328072

>  <RMSD>
33.278

$$$$
lig.pdb
 OpenBabel11021811523D
libRbt.so/2013.1/901 2013/11/27
 22 23  0  0  0  0  0  0  0  0999 V2000
   10.4829  -15.3141   -4.7232 C   0  0  1  0  0  0  0  0  0  0  0  0
   10.7633  -17.4162   -3.3999 C   0  0  1  0  0  0  0  0  0  0  0  0
    9.3068  -18.0677   -3.7782 C   0  0  1  0  0  0  0  0  0  0  0  0
    9.4141  -19.6590   -3.5517 C   0  0  2  0  0  0  0  0  0  0  0  0
   10.7449  -13.7409   -4.7463 C   0  0  1  0  0  0  0  0  0  0  0  0
    9.7192  -12.9948   -3.8069 C   0  0  2  0  0  0  0  0  0  0  0  0
    8.2359  -13.2618   -4.3644 C   0  0  1  0  0  0  0  0  0  0  0  0
    7.8902  -14.8432   -4.2959 C   0  0  1  0  0  0  0  0  0  0  0  0
    6.4656  -15.1952   -4.8068 C   0  0  0  0  0  0  0  0  0  0  0  0
   10.5167  -20.2213   -4.5765 C   0  0  1  0  0  0  0  0  0  0  0  0
   11.9283  -19.5490   -4.1843 C   0  0  0  0  0  0  0  0  0  0  0  0
   11.8590  -17.9703   -4.3419 C   0  0  2  0  0  0  0  0  0  0  0  0
    7.2197  -12.5815   -3.5545 F   0  0  0  0  0  0  0  0  0  0  0  0
   12.2052  -13.5574   -4.3063 N   0  0  0  0  0  0  0  0  0  0  0  0
    6.1573  -16.5780   -4.7757 N   0  0  0  0  0  0  0  0  0  0  0  0
   10.6774  -21.7004   -4.4092 N   0  0  0  0  0  0  0  0  0  0  0  0
   13.1270  -17.3472   -3.9740 N   0  0  0  0  0  0  0  0  0  0  0  0
   10.7957  -16.0195   -3.5887 O   0  0  0  0  0  0  0  0  0  0  0  0
    8.2889  -17.5086   -2.8361 O   0  0  0  0  0  0  0  0  0  0  0  0
    8.1854  -20.2186   -3.8718 O   0  0  0  0  0  0  0  0  0  0  0  0
    9.9539  -11.8430   -3.8669 O   0  0  0  0  0  0  0  0  0  0  0  0
    8.9991  -15.5854   -5.1313 O   0  0  0  0  0  0  0  0  0  0  0  0
  1  5  1  0  0  0  0
  1 18  1  1  0  0  0
  2 18  1  6  0  0  0
  2  3  1  0  0  0  0
  2 12  1  0  0  0  0
  3 19  1  1  0  0  0
  3  4  1  0  0  0  0
  4 20  1  6  0  0  0
  4 10  1  0  0  0  0
  5  6  1  0  0  0  0
  5 14  1  1  0  0  0
  6 21  1  6  0  0  0
  7 13  1  1  0  0  0
  7  6  1  0  0  0  0
  8  9  1  6  0  0  0
  8  7  1  0  0  0  0
 10 16  1  1  0  0  0
 11 10  1  0  0  0  0
 12 17  1  1  0  0  0
 12 11  1  0  0  0  0
 15  9  1  0  0  0  0
 22  8  1  0  0  0  0
 22  1  1  0  0  0  0
M  END
>  <CHROM.1>
-173.52905304,-54.35212783,178.91498188,9.61910701,-16.35233781,-4.11272161
-1.80326836,0.00404996,3.13026645

>  <Name>
lig.pdb

>  <RI>
0

>  <Rbt.Current_Directory>
/home/itssahil/PROJECTS/Mol_Feturizer/New_Systems/rnas/5bxk

>  <Rbt.Executable>
rbdock ($Id: //depot/dev/client3/rdock/2013.1/src/exe/rbdock.cxx#4 $)

>  <Rbt.Library>
libRbt.so (2013.1, Build901 2013/11/27)

>  <Rbt.Parameter_File>
/export/apps/rDock/src/rDock_2013.1_src/data/scripts/dock_solv.prm

>  <Rbt.Receptor>
prm/blind_docking_100.prm

>  <SCORE>
-8.82421

>  <SCORE.INTER>
-6.10266

>  <SCORE.INTER.CONST>
1

>  <SCORE.INTER.POLAR>
0

>  <SCORE.INTER.ROT>
3

>  <SCORE.INTER.SOLV>
13.4252

>  <SCORE.INTER.VDW>
-14.1435

>  <SCORE.INTER.norm>
-0.277394

>  <SCORE.INTRA>
-2.72155

>  <SCORE.INTRA.DIHEDRAL>
-6.68769

>  <SCORE.INTRA.DIHEDRAL.0>
7.18044

>  <SCORE.INTRA.POLAR>
0

>  <SCORE.INTRA.POLAR.0>
0

>  <SCORE.INTRA.REPUL>
0

>  <SCORE.INTRA.REPUL.0>
0

>  <SCORE.INTRA.SOLV>
1.65265

>  <SCORE.INTRA.SOLV.lig_0>
-72.0615

>  <SCORE.INTRA.VDW>
-0.204027

>  <SCORE.INTRA.VDW.0>
-1.54792

>  <SCORE.INTRA.norm>
-0.123707

>  <SCORE.RESTR>
0

>  <SCORE.RESTR.CAVITY>
0

>  <SCORE.RESTR.norm>
0

>  <SCORE.SYSTEM>
0

>  <SCORE.SYSTEM.CONST>
0

>  <SCORE.SYSTEM.DIHEDRAL>
0

>  <SCORE.SYSTEM.SOLV>
0

>  <SCORE.SYSTEM.norm>
0

>  <SCORE.heavy>
22

>  <SCORE.norm>
-0.4011

>  <RMSD>
33.285

$$$$
lig.pdb
 OpenBabel11021811523D
libRbt.so/2013.1/901 2013/11/27
 22 23  0  0  0  0  0  0  0  0999 V2000
   10.3622  -15.4886   -4.7411 C   0  0  1  0  0  0  0  0  0  0  0  0
   10.8294  -17.5220   -3.3644 C   0  0  1  0  0  0  0  0  0  0  0  0
    9.4517  -18.3051   -3.7863 C   0  0  1  0  0  0  0  0  0  0  0  0
    9.6812  -19.8748   -3.5059 C   0  0  2  0  0  0  0  0  0  0  0  0
   10.5322  -13.9050   -4.8279 C   0  0  1  0  0  0  0  0  0  0  0  0
    9.4978  -13.1841   -3.8783 C   0  0  2  0  0  0  0  0  0  0  0  0
    8.0142  -13.5545   -4.3724 C   0  0  1  0  0  0  0  0  0  0  0  0
    7.7627  -15.1492   -4.2369 C   0  0  1  0  0  0  0  0  0  0  0  0
    6.3442  -15.5994   -4.6837 C   0  0  0  0  0  0  0  0  0  0  0  0
   10.8736  -20.3690   -4.4629 C   0  0  1  0  0  0  0  0  0  0  0  0
   12.2041  -19.5687   -4.0298 C   0  0  0  0  0  0  0  0  0  0  0  0
   12.0104  -18.0064   -4.2393 C   0  0  2  0  0  0  0  0  0  0  0  0
    6.9887  -12.9034   -3.5503 F   0  0  0  0  0  0  0  0  0  0  0  0
   11.9936  -13.6235   -4.4475 N   0  0  0  0  0  0  0  0  0  0  0  0
    6.1399  -17.0015   -4.6592 N   0  0  0  0  0  0  0  0  0  0  0  0
   11.1495  -21.8240   -4.2428 N   0  0  0  0  0  0  0  0  0  0  0  0
   13.2032  -17.2681   -3.8354 N   0  0  0  0  0  0  0  0  0  0  0  0
   10.7535  -16.1334   -3.5949 O   0  0  0  0  0  0  0  0  0  0  0  0
    8.3478  -17.8091   -2.9079 O   0  0  0  0  0  0  0  0  0  0  0  0
    8.5198  -20.5453   -3.8624 O   0  0  0  0  0  0  0  0  0  0  0  0
    9.6636  -12.0239   -3.9865 O   0  0  0  0  0  0  0  0  0  0  0  0
    8.8834  -15.8578   -5.0857 O   0  0  0  0  0  0  0  0  0  0  0  0
  1  5  1  0  0  0  0
  1 18  1  1  0  0  0
  2 18  1  6  0  0  0
  2  3  1  0  0  0  0
  2 12  1  0  0  0  0
  3 19  1  1  0  0  0
  3  4  1  0  0  0  0
  4 20  1  6  0  0  0
  4 10  1  0  0  0  0
  5  6  1  0  0  0  0
  5 14  1  1  0  0  0
  6 21  1  6  0  0  0
  7 13  1  1  0  0  0
  7  6  1  0  0  0  0
  8  9  1  6  0  0  0
  8  7  1  0  0  0  0
 10 16  1  1  0  0  0
 11 10  1  0  0  0  0
 12 17  1  1  0  0  0
 12 11  1  0  0  0  0
 15  9  1  0  0  0  0
 22  8  1  0  0  0  0
 22  1  1  0  0  0  0
M  END
>  <CHROM.1>
-172.36942763,-50.25851206,175.82470398,9.62692008,-16.55340260,-4.08774262
-1.88772898,0.00064893,3.10940230

>  <Name>
lig.pdb

>  <RI>
0

>  <Rbt.Current_Directory>
/home/itssahil/PROJECTS/Mol_Feturizer/New_Systems/rnas/5bxk

>  <Rbt.Executable>
rbdock ($Id: //depot/dev/client3/rdock/2013.1/src/exe/rbdock.cxx#4 $)

>  <Rbt.Library>
libRbt.so (2013.1, Build901 2013/11/27)

>  <Rbt.Parameter_File>
/export/apps/rDock/src/rDock_2013.1_src/data/scripts/dock_solv.prm

>  <Rbt.Receptor>
prm/blind_docking_80.prm

>  <SCORE>
-8.38658

>  <SCORE.INTER>
-5.96332

>  <SCORE.INTER.CONST>
1

>  <SCORE.INTER.POLAR>
0

>  <SCORE.INTER.ROT>
3

>  <SCORE.INTER.SOLV>
12.4962

>  <SCORE.INTER.VDW>
-13.7409

>  <SCORE.INTER.norm>
-0.27106

>  <SCORE.INTRA>
-2.42325

>  <SCORE.INTRA.DIHEDRAL>
-6.25189

>  <SCORE.INTRA.DIHEDRAL.0>
7.18044

>  <SCORE.INTRA.POLAR>
0

>  <SCORE.INTRA.POLAR.0>
0

>  <SCORE.INTRA.REPUL>
0

>  <SCORE.INTRA.REPUL.0>
0

>  <SCORE.INTRA.SOLV>
1.73211

>  <SCORE.INTRA.SOLV.lig_0>
-72.0615

>  <SCORE.INTRA.VDW>
-0.163361

>  <SCORE.INTRA.VDW.0>
-1.54792

>  <SCORE.INTRA.norm>
-0.110148

>  <SCORE.RESTR>
0

>  <SCORE.RESTR.CAVITY>
0

>  <SCORE.RESTR.norm>
0

>  <SCORE.SYSTEM>
0

>  <SCORE.SYSTEM.CONST>
0

>  <SCORE.SYSTEM.DIHEDRAL>
0

>  <SCORE.SYSTEM.SOLV>
0

>  <SCORE.SYSTEM.norm>
0

>  <SCORE.heavy>
22

>  <SCORE.norm>
-0.381208

>  <RMSD>
33.288

$$$$
lig.pdb
 OpenBabel11021811523D
libRbt.so/2013.1/901 2013/11/27
 22 23  0  0  0  0  0  0  0  0999 V2000
    8.5022  -19.8031   -2.9481 C   0  0  1  0  0  0  0  0  0  0  0  0
    9.7669  -17.8686   -3.9004 C   0  0  1  0  0  0  0  0  0  0  0  0
    8.6705  -16.6593   -3.7427 C   0  0  1  0  0  0  0  0  0  0  0  0
    9.0486  -15.5194   -4.8164 C   0  0  2  0  0  0  0  0  0  0  0  0
    8.3947  -20.8165   -1.7212 C   0  0  1  0  0  0  0  0  0  0  0  0
    9.5273  -21.9125   -1.8074 C   0  0  2  0  0  0  0  0  0  0  0  0
    9.3203  -22.7481   -3.1643 C   0  0  1  0  0  0  0  0  0  0  0  0
    9.4910  -21.7766   -4.4495 C   0  0  1  0  0  0  0  0  0  0  0  0
    9.3177  -22.5040   -5.8116 C   0  0  0  0  0  0  0  0  0  0  0  0
   10.5033  -14.9551   -4.4324 C   0  0  1  0  0  0  0  0  0  0  0  0
   11.5492  -16.1723   -4.5839 C   0  0  0  0  0  0  0  0  0  0  0  0
   11.1885  -17.3481   -3.5793 C   0  0  2  0  0  0  0  0  0  0  0  0
   10.3256  -23.8063   -3.3103 F   0  0  0  0  0  0  0  0  0  0  0  0
    8.4936  -19.9492   -0.4572 N   0  0  0  0  0  0  0  0  0  0  0  0
    9.5668  -21.6914   -6.9455 N   0  0  0  0  0  0  0  0  0  0  0  0
   10.9243  -13.8958   -5.4031 N   0  0  0  0  0  0  0  0  0  0  0  0
   12.1191  -18.4643   -3.7177 N   0  0  0  0  0  0  0  0  0  0  0  0
    9.5496  -18.9175   -2.9839 O   0  0  0  0  0  0  0  0  0  0  0  0
    7.3201  -17.2107   -4.0721 O   0  0  0  0  0  0  0  0  0  0  0  0
    8.1262  -14.4907   -4.6881 O   0  0  0  0  0  0  0  0  0  0  0  0
    9.3969  -22.6327   -0.8856 O   0  0  0  0  0  0  0  0  0  0  0  0
    8.4411  -20.6155   -4.2816 O   0  0  0  0  0  0  0  0  0  0  0  0
  1  5  1  0  0  0  0
  1 18  1  1  0  0  0
  2 18  1  1  0  0  0
  2  3  1  0  0  0  0
  2 12  1  0  0  0  0
  3 19  1  6  0  0  0
  3  4  1  0  0  0  0
  4 20  1  1  0  0  0
  4 10  1  0  0  0  0
  5  6  1  0  0  0  0
  5 14  1  1  0  0  0
  6 21  1  1  0  0  0
  7 13  1  6  0  0  0
  7  6  1  0  0  0  0
  8  9  1  6  0  0  0
  8  7  1  0  0  0  0
 10 16  1  6  0  0  0
 11 10  1  0  0  0  0
 12 17  1  6  0  0  0
 12 11  1  0  0  0  0
 15  9  1  0  0  0  0
 22  8  1  0  0  0  0
 22  1  1  0  0  0  0
M  END
>  <CHROM.1>
-173.80493115,68.03494076,-175.31659646,9.50974308,-19.14986560,-3.70508325
1.73893480,-1.25002966,3.09124935

>  <Name>
lig.pdb

>  <RI>
0

>  <Rbt.Current_Directory>
/home/itssahil/PROJECTS/Mol_Feturizer/New_Systems/rnas/5bxk

>  <Rbt.Executable>
rbdock ($Id: //depot/dev/client3/rdock/2013.1/src/exe/rbdock.cxx#4 $)

>  <Rbt.Library>
libRbt.so (2013.1, Build901 2013/11/27)

>  <Rbt.Parameter_File>
/export/apps/rDock/src/rDock_2013.1_src/data/scripts/dock_solv.prm

>  <Rbt.Receptor>
prm/blind_docking_40.prm

>  <SCORE>
-5.8304

>  <SCORE.INTER>
-1.78992

>  <SCORE.INTER.CONST>
1

>  <SCORE.INTER.POLAR>
0

>  <SCORE.INTER.ROT>
3

>  <SCORE.INTER.SOLV>
21.5324

>  <SCORE.INTER.VDW>
-13.9707

>  <SCORE.INTER.norm>
-0.0813602

>  <SCORE.INTRA>
-4.04048

>  <SCORE.INTRA.DIHEDRAL>
-6.47046

>  <SCORE.INTRA.DIHEDRAL.0>
7.18044

>  <SCORE.INTRA.POLAR>
0

>  <SCORE.INTRA.POLAR.0>
0

>  <SCORE.INTRA.REPUL>
0

>  <SCORE.INTRA.REPUL.0>
0

>  <SCORE.INTRA.SOLV>
-1.71835

>  <SCORE.INTRA.SOLV.lig_0>
-72.0615

>  <SCORE.INTRA.VDW>
0.0539294

>  <SCORE.INTRA.VDW.0>
-1.54792

>  <SCORE.INTRA.norm>
-0.183658

>  <SCORE.RESTR>
0

>  <SCORE.RESTR.CAVITY>
0

>  <SCORE.RESTR.norm>
0

>  <SCORE.SYSTEM>
0

>  <SCORE.SYSTEM.CONST>
0

>  <SCORE.SYSTEM.DIHEDRAL>
0

>  <SCORE.SYSTEM.SOLV>
0

>  <SCORE.SYSTEM.norm>
0

>  <SCORE.heavy>
22

>  <SCORE.norm>
-0.265018

>  <RMSD>
33.316

$$$$
lig.pdb
 OpenBabel11021811523D
libRbt.so/2013.1/901 2013/11/27
 22 23  0  0  0  0  0  0  0  0999 V2000
   10.4554  -19.6453   -3.1131 C   0  0  1  0  0  0  0  0  0  0  0  0
   10.6948  -17.4013   -4.1880 C   0  0  1  0  0  0  0  0  0  0  0  0
    9.5519  -16.5910   -3.3357 C   0  0  1  0  0  0  0  0  0  0  0  0
    9.1231  -15.3029   -4.2028 C   0  0  2  0  0  0  0  0  0  0  0  0
   11.1796  -20.7472   -2.2157 C   0  0  1  0  0  0  0  0  0  0  0  0
   12.2449  -21.5420   -3.0670 C   0  0  2  0  0  0  0  0  0  0  0  0
   11.4777  -22.2962   -4.2608 C   0  0  1  0  0  0  0  0  0  0  0  0
   10.7813  -21.2158   -5.2470 C   0  0  1  0  0  0  0  0  0  0  0  0
   10.0225  -21.8570   -6.4419 C   0  0  0  0  0  0  0  0  0  0  0  0
   10.4201  -14.3663   -4.3535 C   0  0  1  0  0  0  0  0  0  0  0  0
   11.5244  -15.1996   -5.1809 C   0  0  0  0  0  0  0  0  0  0  0  0
   11.9444  -16.5109   -4.3896 C   0  0  2  0  0  0  0  0  0  0  0  0
   12.3994  -23.0790   -5.0908 F   0  0  0  0  0  0  0  0  0  0  0  0
   11.8024  -19.9800   -1.0395 N   0  0  0  0  0  0  0  0  0  0  0  0
    8.9291  -22.6776   -6.0688 N   0  0  0  0  0  0  0  0  0  0  0  0
   10.0939  -13.1508   -5.1645 N   0  0  0  0  0  0  0  0  0  0  0  0
   12.9328  -17.2835   -5.1360 N   0  0  0  0  0  0  0  0  0  0  0  0
   11.1685  -18.5416   -3.5080 O   0  0  0  0  0  0  0  0  0  0  0  0
    8.3666  -17.4890   -3.1776 O   0  0  0  0  0  0  0  0  0  0  0  0
    8.1569  -14.6101   -3.4872 O   0  0  0  0  0  0  0  0  0  0  0  0
   12.7414  -22.3413   -2.3600 O   0  0  0  0  0  0  0  0  0  0  0  0
    9.8183  -20.3451   -4.3566 O   0  0  0  0  0  0  0  0  0  0  0  0
  1  5  1  0  0  0  0
  1 18  1  6  0  0  0
  2 18  1  1  0  0  0
  2  3  1  0  0  0  0
  2 12  1  0  0  0  0
  3 19  1  6  0  0  0
  3  4  1  0  0  0  0
  4 20  1  1  0  0  0
  4 10  1  0  0  0  0
  5  6  1  0  0  0  0
  5 14  1  1  0  0  0
  6 21  1  1  0  0  0
  7 13  1  6  0  0  0
  7  6  1  0  0  0  0
  8  9  1  6  0  0  0
  8  7  1  0  0  0  0
 10 16  1  6  0  0  0
 11 10  1  0  0  0  0
 12 17  1  6  0  0  0
 12 11  1  0  0  0  0
 15  9  1  0  0  0  0
 22  8  1  0  0  0  0
 22  1  1  0  0  0  0
M  END
>  <CHROM.1>
-173.51091830,61.28796764,62.77824112,10.72286471,-18.80758396,-4.06487420
-1.27921640,-0.79952222,0.20123138

>  <Name>
lig.pdb

>  <RI>
0

>  <Rbt.Current_Directory>
/home/itssahil/PROJECTS/Mol_Feturizer/New_Systems/rnas/5bxk

>  <Rbt.Executable>
rbdock ($Id: //depot/dev/client3/rdock/2013.1/src/exe/rbdock.cxx#4 $)

>  <Rbt.Library>
libRbt.so (2013.1, Build901 2013/11/27)

>  <Rbt.Parameter_File>
/export/apps/rDock/src/rDock_2013.1_src/data/scripts/dock_solv.prm

>  <Rbt.Receptor>
prm/blind_docking_40.prm

>  <SCORE>
-5.93331

>  <SCORE.INTER>
-2.1728

>  <SCORE.INTER.CONST>
1

>  <SCORE.INTER.POLAR>
0

>  <SCORE.INTER.ROT>
3

>  <SCORE.INTER.SOLV>
22.4964

>  <SCORE.INTER.VDW>
-14.5473

>  <SCORE.INTER.norm>
-0.0987637

>  <SCORE.INTRA>
-3.7605

>  <SCORE.INTRA.DIHEDRAL>
-6.81027

>  <SCORE.INTRA.DIHEDRAL.0>
7.18044

>  <SCORE.INTRA.POLAR>
0

>  <SCORE.INTRA.POLAR.0>
0

>  <SCORE.INTRA.REPUL>
0

>  <SCORE.INTRA.REPUL.0>
0

>  <SCORE.INTRA.SOLV>
-0.752509

>  <SCORE.INTRA.SOLV.lig_0>
-72.0615

>  <SCORE.INTRA.VDW>
0.0208846

>  <SCORE.INTRA.VDW.0>
-1.54792

>  <SCORE.INTRA.norm>
-0.170932

>  <SCORE.RESTR>
0

>  <SCORE.RESTR.CAVITY>
0

>  <SCORE.RESTR.norm>
0

>  <SCORE.SYSTEM>
0

>  <SCORE.SYSTEM.CONST>
0

>  <SCORE.SYSTEM.DIHEDRAL>
0

>  <SCORE.SYSTEM.SOLV>
0

>  <SCORE.SYSTEM.norm>
0

>  <SCORE.heavy>
22

>  <SCORE.norm>
-0.269696

>  <RMSD>
33.320

$$$$
lig.pdb
 OpenBabel11021811523D
libRbt.so/2013.1/901 2013/11/27
 22 23  0  0  0  0  0  0  0  0999 V2000
    8.4679  -19.7986   -2.9943 C   0  0  1  0  0  0  0  0  0  0  0  0
    9.7881  -17.8792   -3.9008 C   0  0  1  0  0  0  0  0  0  0  0  0
    8.7075  -16.6514   -3.7819 C   0  0  1  0  0  0  0  0  0  0  0  0
    9.1396  -15.5209   -4.8450 C   0  0  2  0  0  0  0  0  0  0  0  0
    8.3054  -20.8115   -1.7730 C   0  0  1  0  0  0  0  0  0  0  0  0
    9.4312  -21.9170   -1.8168 C   0  0  2  0  0  0  0  0  0  0  0  0
    9.2690  -22.7503   -3.1812 C   0  0  1  0  0  0  0  0  0  0  0  0
    9.4965  -21.7798   -4.4584 C   0  0  1  0  0  0  0  0  0  0  0  0
    9.3690  -22.5053   -5.8265 C   0  0  0  0  0  0  0  0  0  0  0  0
   10.5903  -14.9799   -4.4149 C   0  0  1  0  0  0  0  0  0  0  0  0
   11.6200  -16.2148   -4.5292 C   0  0  0  0  0  0  0  0  0  0  0  0
   11.2069  -17.3817   -3.5344 C   0  0  2  0  0  0  0  0  0  0  0  0
   10.2702  -23.8168   -3.2896 F   0  0  0  0  0  0  0  0  0  0  0  0
    8.3634  -19.9455   -0.5056 N   0  0  0  0  0  0  0  0  0  0  0  0
    9.6431  -21.6874   -6.9509 N   0  0  0  0  0  0  0  0  0  0  0  0
   11.0605  -13.9305   -5.3736 N   0  0  0  0  0  0  0  0  0  0  0  0
   12.1227  -18.5136   -3.6398 N   0  0  0  0  0  0  0  0  0  0  0  0
    9.5233  -18.9218   -2.9897 O   0  0  0  0  0  0  0  0  0  0  0  0
    7.3595  -17.1811   -4.1541 O   0  0  0  0  0  0  0  0  0  0  0  0
    8.2308  -14.4767   -4.7494 O   0  0  0  0  0  0  0  0  0  0  0  0
    9.2599  -22.6364   -0.9011 O   0  0  0  0  0  0  0  0  0  0  0  0
    8.4508  -20.6100   -4.3297 O   0  0  0  0  0  0  0  0  0  0  0  0
  1  5  1  0  0  0  0
  1 18  1  1  0  0  0
  2 18  1  1  0  0  0
  2  3  1  0  0  0  0
  2 12  1  0  0  0  0
  3 19  1  6  0  0  0
  3  4  1  0  0  0  0
  4 20  1  1  0  0  0
  4 10  1  0  0  0  0
  5  6  1  0  0  0  0
  5 14  1  1  0  0  0
  6 21  1  1  0  0  0
  7 13  1  1  0  0  0
  7  6  1  0  0  0  0
  8  9  1  6  0  0  0
  8  7  1  0  0  0  0
 10 16  1  6  0  0  0
 11 10  1  0  0  0  0
 12 17  1  6  0  0  0
 12 11  1  0  0  0  0
 15  9  1  0  0  0  0
 22  8  1  0  0  0  0
 22  1  1  0  0  0  0
M  END
>  <CHROM.1>
-174.19664946,68.78017954,-176.45741333,9.51474177,-19.15639700,-3.71628563
1.77414152,-1.20817101,3.12212050

>  <Name>
lig.pdb

>  <RI>
0

>  <Rbt.Current_Directory>
/home/itssahil/PROJECTS/Mol_Feturizer/New_Systems/rnas/5bxk

>  <Rbt.Executable>
rbdock ($Id: //depot/dev/client3/rdock/2013.1/src/exe/rbdock.cxx#4 $)

>  <Rbt.Library>
libRbt.so (2013.1, Build901 2013/11/27)

>  <Rbt.Parameter_File>
/export/apps/rDock/src/rDock_2013.1_src/data/scripts/dock_solv.prm

>  <Rbt.Receptor>
prm/blind_docking_60.prm

>  <SCORE>
-5.82325

>  <SCORE.INTER>
-1.79456

>  <SCORE.INTER.CONST>
1

>  <SCORE.INTER.POLAR>
0

>  <SCORE.INTER.ROT>
3

>  <SCORE.INTER.SOLV>
21.0329

>  <SCORE.INTER.VDW>
-13.8073

>  <SCORE.INTER.norm>
-0.0815707

>  <SCORE.INTRA>
-4.0287

>  <SCORE.INTRA.DIHEDRAL>
-6.46648

>  <SCORE.INTRA.DIHEDRAL.0>
7.18044

>  <SCORE.INTRA.POLAR>
0

>  <SCORE.INTRA.POLAR.0>
0

>  <SCORE.INTRA.REPUL>
0

>  <SCORE.INTRA.REPUL.0>
0

>  <SCORE.INTRA.SOLV>
-1.68393

>  <SCORE.INTRA.SOLV.lig_0>
-72.0615

>  <SCORE.INTRA.VDW>
0.0465068

>  <SCORE.INTRA.VDW.0>
-1.54792

>  <SCORE.INTRA.norm>
-0.183123

>  <SCORE.RESTR>
0

>  <SCORE.RESTR.CAVITY>
0

>  <SCORE.RESTR.norm>
0

>  <SCORE.SYSTEM>
0

>  <SCORE.SYSTEM.CONST>
0

>  <SCORE.SYSTEM.DIHEDRAL>
0

>  <SCORE.SYSTEM.SOLV>
0

>  <SCORE.SYSTEM.norm>
0

>  <SCORE.heavy>
22

>  <SCORE.norm>
-0.264693

>  <RMSD>
33.321

$$$$
lig.pdb
 OpenBabel11021811523D
libRbt.so/2013.1/901 2013/11/27
 22 23  0  0  0  0  0  0  0  0999 V2000
   10.6615  -15.8683   -4.5409 C   0  0  1  0  0  0  0  0  0  0  0  0
   10.1347  -18.0416   -3.4237 C   0  0  1  0  0  0  0  0  0  0  0  0
    8.5918  -18.0937   -3.9771 C   0  0  1  0  0  0  0  0  0  0  0  0
    8.0943  -19.6230   -3.8819 C   0  0  2  0  0  0  0  0  0  0  0  0
   11.6021  -14.5811   -4.4919 C   0  0  1  0  0  0  0  0  0  0  0  0
   11.0780  -13.5530   -3.4150 C   0  0  2  0  0  0  0  0  0  0  0  0
    9.6042  -13.0779   -3.8445 C   0  0  1  0  0  0  0  0  0  0  0  0
    8.5879  -14.3397   -3.8409 C   0  0  1  0  0  0  0  0  0  0  0  0
    7.1308  -13.9710   -4.2349 C   0  0  0  0  0  0  0  0  0  0  0  0
    9.0256  -20.4974   -4.8566 C   0  0  1  0  0  0  0  0  0  0  0  0
   10.5328  -20.4101   -4.2914 C   0  0  0  0  0  0  0  0  0  0  0  0
   11.0535  -18.9100   -4.3161 C   0  0  2  0  0  0  0  0  0  0  0  0
    9.0515  -12.0999   -2.9014 F   0  0  0  0  0  0  0  0  0  0  0  0
   13.0111  -15.1089   -4.1822 N   0  0  0  0  0  0  0  0  0  0  0  0
    6.2159  -15.0513   -4.1721 N   0  0  0  0  0  0  0  0  0  0  0  0
    8.6244  -21.9389   -4.8061 N   0  0  0  0  0  0  0  0  0  0  0  0
   12.4124  -18.8147   -3.7914 N   0  0  0  0  0  0  0  0  0  0  0  0
   10.6875  -16.7463   -3.4868 O   0  0  0  0  0  0  0  0  0  0  0  0
    7.7468  -17.2492   -3.0776 O   0  0  0  0  0  0  0  0  0  0  0  0
    6.7893  -19.6762   -4.3504 O   0  0  0  0  0  0  0  0  0  0  0  0
   11.8024  -12.6253   -3.4261 O   0  0  0  0  0  0  0  0  0  0  0  0
    9.1938  -15.4115   -4.8220 O   0  0  0  0  0  0  0  0  0  0  0  0
  1  5  1  0  0  0  0
  1 18  1  1  0  0  0
  2 18  1  6  0  0  0
  2  3  1  0  0  0  0
  2 12  1  0  0  0  0
  3 19  1  1  0  0  0
  3  4  1  0  0  0  0
  4 20  1  6  0  0  0
  4 10  1  0  0  0  0
  5  6  1  0  0  0  0
  5 14  1  1  0  0  0
  6 21  1  6  0  0  0
  7 13  1  1  0  0  0
  7  6  1  0  0  0  0
  8  9  1  6  0  0  0
  8  7  1  0  0  0  0
 10 16  1  1  0  0  0
 11 10  1  0  0  0  0
 12 17  1  1  0  0  0
 12 11  1  0  0  0  0
 15  9  1  0  0  0  0
 22  8  1  0  0  0  0
 22  1  1  0  0  0  0
M  END
>  <CHROM.1>
-167.69464998,-47.48579830,-177.02066298,9.59148929,-16.54017231,-3.98119841
-1.42207908,0.00393590,-3.04817507

>  <Name>
lig.pdb

>  <RI>
0

>  <Rbt.Current_Directory>
/home/itssahil/PROJECTS/Mol_Feturizer/New_Systems/rnas/5bxk

>  <Rbt.Executable>
rbdock ($Id: //depot/dev/client3/rdock/2013.1/src/exe/rbdock.cxx#4 $)

>  <Rbt.Library>
libRbt.so (2013.1, Build901 2013/11/27)

>  <Rbt.Parameter_File>
/export/apps/rDock/src/rDock_2013.1_src/data/scripts/dock_solv.prm

>  <Rbt.Receptor>
prm/blind_docking_80.prm

>  <SCORE>
-8.18392

>  <SCORE.INTER>
-6.13424

>  <SCORE.INTER.CONST>
1

>  <SCORE.INTER.POLAR>
0

>  <SCORE.INTER.ROT>
3

>  <SCORE.INTER.SOLV>
14.3446

>  <SCORE.INTER.VDW>
-14.471

>  <SCORE.INTER.norm>
-0.278829

>  <SCORE.INTRA>
-2.04968

>  <SCORE.INTRA.DIHEDRAL>
-5.57201

>  <SCORE.INTRA.DIHEDRAL.0>
7.18044

>  <SCORE.INTRA.POLAR>
0

>  <SCORE.INTRA.POLAR.0>
0

>  <SCORE.INTRA.REPUL>
0

>  <SCORE.INTRA.REPUL.0>
0

>  <SCORE.INTRA.SOLV>
1.73675

>  <SCORE.INTRA.SOLV.lig_0>
-72.0615

>  <SCORE.INTRA.VDW>
-0.132051

>  <SCORE.INTRA.VDW.0>
-1.54792

>  <SCORE.INTRA.norm>
-0.0931673

>  <SCORE.RESTR>
0

>  <SCORE.RESTR.CAVITY>
0

>  <SCORE.RESTR.norm>
0

>  <SCORE.SYSTEM>
0

>  <SCORE.SYSTEM.CONST>
0

>  <SCORE.SYSTEM.DIHEDRAL>
0

>  <SCORE.SYSTEM.SOLV>
0

>  <SCORE.SYSTEM.norm>
0

>  <SCORE.heavy>
22

>  <SCORE.norm>
-0.371996

>  <RMSD>
33.330

$$$$
lig.pdb
 OpenBabel11021811523D
libRbt.so/2013.1/901 2013/11/27
 22 23  0  0  0  0  0  0  0  0999 V2000
    9.8869  -15.7936   -5.1018 C   0  0  1  0  0  0  0  0  0  0  0  0
    9.4273  -18.0359   -4.0972 C   0  0  1  0  0  0  0  0  0  0  0  0
   10.4592  -19.1725   -3.5205 C   0  0  1  0  0  0  0  0  0  0  0  0
    9.6750  -20.5796   -3.5123 C   0  0  2  0  0  0  0  0  0  0  0  0
   10.9969  -14.6520   -5.1946 C   0  0  1  0  0  0  0  0  0  0  0  0
   10.8663  -13.6524   -3.9800 C   0  0  2  0  0  0  0  0  0  0  0  0
    9.4222  -12.9515   -4.0548 C   0  0  1  0  0  0  0  0  0  0  0  0
    8.2537  -14.0620   -3.8930 C   0  0  1  0  0  0  0  0  0  0  0  0
    6.8174  -13.4712   -3.9422 C   0  0  0  0  0  0  0  0  0  0  0  0
    8.4372  -20.4388   -2.4973 C   0  0  1  0  0  0  0  0  0  0  0  0
    7.4548  -19.3052   -3.0875 C   0  0  0  0  0  0  0  0  0  0  0  0
    8.1994  -17.9046   -3.1646 C   0  0  2  0  0  0  0  0  0  0  0  0
    9.2286  -11.9869   -2.9669 F   0  0  0  0  0  0  0  0  0  0  0  0
   12.3457  -15.3866   -5.2251 N   0  0  0  0  0  0  0  0  0  0  0  0
    5.7840  -14.4330   -3.8191 N   0  0  0  0  0  0  0  0  0  0  0  0
    7.6533  -21.7135   -2.4514 N   0  0  0  0  0  0  0  0  0  0  0  0
    7.3252  -16.8720   -3.7129 N   0  0  0  0  0  0  0  0  0  0  0  0
   10.0015  -16.7487   -4.1234 O   0  0  0  0  0  0  0  0  0  0  0  0
   11.6192  -19.2662   -4.4597 O   0  0  0  0  0  0  0  0  0  0  0  0
   10.5412  -21.5471   -3.0234 O   0  0  0  0  0  0  0  0  0  0  0  0
   11.7015  -12.8322   -4.1023 O   0  0  0  0  0  0  0  0  0  0  0  0
    8.4769  -15.1233   -5.0343 O   0  0  0  0  0  0  0  0  0  0  0  0
  1  5  1  0  0  0  0
  1 18  1  1  0  0  0
  2 18  1  1  0  0  0
  2  3  1  0  0  0  0
  2 12  1  0  0  0  0
  3 19  1  6  0  0  0
  3  4  1  0  0  0  0
  4 20  1  1  0  0  0
  4 10  1  0  0  0  0
  5  6  1  0  0  0  0
  5 14  1  1  0  0  0
  6 21  1  6  0  0  0
  7 13  1  1  0  0  0
  7  6  1  0  0  0  0
  8  9  1  6  0  0  0
  8  7  1  0  0  0  0
 10 16  1  6  0  0  0
 11 10  1  0  0  0  0
 12 17  1  6  0  0  0
 12 11  1  0  0  0  0
 15  9  1  0  0  0  0
 22  8  1  0  0  0  0
 22  1  1  0  0  0  0
M  END
>  <CHROM.1>
-158.25284672,139.05207674,179.23392738,9.32627456,-16.57115643,-3.85558196
-1.54239717,-0.22148194,3.02413275

>  <Name>
lig.pdb

>  <RI>
0

>  <Rbt.Current_Directory>
/home/itssahil/PROJECTS/Mol_Feturizer/New_Systems/rnas/5bxk

>  <Rbt.Executable>
rbdock ($Id: //depot/dev/client3/rdock/2013.1/src/exe/rbdock.cxx#4 $)

>  <Rbt.Library>
libRbt.so (2013.1, Build901 2013/11/27)

>  <Rbt.Parameter_File>
/export/apps/rDock/src/rDock_2013.1_src/data/scripts/dock_solv.prm

>  <Rbt.Receptor>
prm/blind_docking_80.prm

>  <SCORE>
-4.51468

>  <SCORE.INTER>
-6.98162

>  <SCORE.INTER.CONST>
1

>  <SCORE.INTER.POLAR>
0

>  <SCORE.INTER.ROT>
3

>  <SCORE.INTER.SOLV>
14.0366

>  <SCORE.INTER.VDW>
-14.9333

>  <SCORE.INTER.norm>
-0.317346

>  <SCORE.INTRA>
2.46694

>  <SCORE.INTRA.DIHEDRAL>
0.523555

>  <SCORE.INTRA.DIHEDRAL.0>
7.18044

>  <SCORE.INTRA.POLAR>
0

>  <SCORE.INTRA.POLAR.0>
0

>  <SCORE.INTRA.REPUL>
0

>  <SCORE.INTRA.REPUL.0>
0

>  <SCORE.INTRA.SOLV>
3.69658

>  <SCORE.INTRA.SOLV.lig_0>
-72.0615

>  <SCORE.INTRA.VDW>
0.356871

>  <SCORE.INTRA.VDW.0>
-1.54792

>  <SCORE.INTRA.norm>
0.112133

>  <SCORE.RESTR>
0

>  <SCORE.RESTR.CAVITY>
0

>  <SCORE.RESTR.norm>
0

>  <SCORE.SYSTEM>
0

>  <SCORE.SYSTEM.CONST>
0

>  <SCORE.SYSTEM.DIHEDRAL>
0

>  <SCORE.SYSTEM.SOLV>
0

>  <SCORE.SYSTEM.norm>
0

>  <SCORE.heavy>
22

>  <SCORE.norm>
-0.205213

>  <RMSD>
33.331

$$$$
lig.pdb
 OpenBabel11021811523D
libRbt.so/2013.1/901 2013/11/27
 22 23  0  0  0  0  0  0  0  0999 V2000
    9.9271  -15.7795   -5.1166 C   0  0  1  0  0  0  0  0  0  0  0  0
    9.4387  -18.0185   -4.1182 C   0  0  1  0  0  0  0  0  0  0  0  0
   10.4632  -19.1693   -3.5567 C   0  0  1  0  0  0  0  0  0  0  0  0
    9.6654  -20.5688   -3.5539 C   0  0  2  0  0  0  0  0  0  0  0  0
   11.0500  -14.6499   -5.2014 C   0  0  1  0  0  0  0  0  0  0  0  0
   10.9226  -13.6502   -3.9866 C   0  0  2  0  0  0  0  0  0  0  0  0
    9.4866  -12.9336   -4.0697 C   0  0  1  0  0  0  0  0  0  0  0  0
    8.3052  -14.0316   -3.9163 C   0  0  1  0  0  0  0  0  0  0  0  0
    6.8757  -13.4252   -3.9738 C   0  0  0  0  0  0  0  0  0  0  0  0
    8.4355  -20.4238   -2.5300 C   0  0  1  0  0  0  0  0  0  0  0  0
    7.4605  -19.2763   -3.1054 C   0  0  0  0  0  0  0  0  0  0  0  0
    8.2181  -17.8825   -3.1768 C   0  0  2  0  0  0  0  0  0  0  0  0
    9.2968  -11.9680   -2.9819 F   0  0  0  0  0  0  0  0  0  0  0  0
   12.3908  -15.3992   -5.2242 N   0  0  0  0  0  0  0  0  0  0  0  0
    5.8313  -14.3743   -3.8454 N   0  0  0  0  0  0  0  0  0  0  0  0
    7.6396  -21.6912   -2.4886 N   0  0  0  0  0  0  0  0  0  0  0  0
    7.3505  -16.8373   -3.7117 N   0  0  0  0  0  0  0  0  0  0  0  0
   10.0252  -16.7367   -4.1386 O   0  0  0  0  0  0  0  0  0  0  0  0
   11.6162  -19.2671   -4.5040 O   0  0  0  0  0  0  0  0  0  0  0  0
   10.5253  -21.5483   -3.0779 O   0  0  0  0  0  0  0  0  0  0  0  0
   11.7674  -12.8390   -4.1028 O   0  0  0  0  0  0  0  0  0  0  0  0
    8.5240  -15.0941   -5.0572 O   0  0  0  0  0  0  0  0  0  0  0  0
  1  5  1  0  0  0  0
  1 18  1  1  0  0  0
  2 18  1  1  0  0  0
  2  3  1  0  0  0  0
  2 12  1  0  0  0  0
  3 19  1  6  0  0  0
  3  4  1  0  0  0  0
  4 20  1  1  0  0  0
  4 10  1  0  0  0  0
  5  6  1  0  0  0  0
  5 14  1  1  0  0  0
  6 21  1  6  0  0  0
  7 13  1  1  0  0  0
  7  6  1  0  0  0  0
  8  9  1  6  0  0  0
  8  7  1  0  0  0  0
 10 16  1  6  0  0  0
 11 10  1  0  0  0  0
 12 17  1  6  0  0  0
 12 11  1  0  0  0  0
 15  9  1  0  0  0  0
 22  8  1  0  0  0  0
 22  1  1  0  0  0  0
M  END
>  <CHROM.1>
-158.13871721,138.16948010,179.80299033,9.35592791,-16.55477862,-3.87719206
-1.53359903,-0.22161359,3.02954009

>  <Name>
lig.pdb

>  <RI>
0

>  <Rbt.Current_Directory>
/home/itssahil/PROJECTS/Mol_Feturizer/New_Systems/rnas/5bxk

>  <Rbt.Executable>
rbdock ($Id: //depot/dev/client3/rdock/2013.1/src/exe/rbdock.cxx#4 $)

>  <Rbt.Library>
libRbt.so (2013.1, Build901 2013/11/27)

>  <Rbt.Parameter_File>
/export/apps/rDock/src/rDock_2013.1_src/data/scripts/dock_solv.prm

>  <Rbt.Receptor>
prm/blind_docking_80.prm

>  <SCORE>
-4.47065

>  <SCORE.INTER>
-6.89008

>  <SCORE.INTER.CONST>
1

>  <SCORE.INTER.POLAR>
0

>  <SCORE.INTER.ROT>
3

>  <SCORE.INTER.SOLV>
14.2037

>  <SCORE.INTER.VDW>
-14.9279

>  <SCORE.INTER.norm>
-0.313185

>  <SCORE.INTRA>
2.41943

>  <SCORE.INTRA.DIHEDRAL>
0.678159

>  <SCORE.INTRA.DIHEDRAL.0>
7.18044

>  <SCORE.INTRA.POLAR>
0

>  <SCORE.INTRA.POLAR.0>
0

>  <SCORE.INTRA.REPUL>
0

>  <SCORE.INTRA.REPUL.0>
0

>  <SCORE.INTRA.SOLV>
3.65086

>  <SCORE.INTRA.SOLV.lig_0>
-72.0615

>  <SCORE.INTRA.VDW>
0.254918

>  <SCORE.INTRA.VDW.0>
-1.54792

>  <SCORE.INTRA.norm>
0.109974

>  <SCORE.RESTR>
0

>  <SCORE.RESTR.CAVITY>
0

>  <SCORE.RESTR.norm>
0

>  <SCORE.SYSTEM>
0

>  <SCORE.SYSTEM.CONST>
0

>  <SCORE.SYSTEM.DIHEDRAL>
0

>  <SCORE.SYSTEM.SOLV>
0

>  <SCORE.SYSTEM.norm>
0

>  <SCORE.heavy>
22

>  <SCORE.norm>
-0.203211

>  <RMSD>
33.341

$$$$
lig.pdb
 OpenBabel11021811523D
libRbt.so/2013.1/901 2013/11/27
 22 23  0  0  0  0  0  0  0  0999 V2000
   10.5927  -15.8539   -4.5561 C   0  0  1  0  0  0  0  0  0  0  0  0
   10.0643  -18.0227   -3.4312 C   0  0  1  0  0  0  0  0  0  0  0  0
    8.5236  -18.0736   -3.9906 C   0  0  1  0  0  0  0  0  0  0  0  0
    8.0209  -19.6006   -3.8877 C   0  0  2  0  0  0  0  0  0  0  0  0
   11.5565  -14.5833   -4.5267 C   0  0  1  0  0  0  0  0  0  0  0  0
   11.0691  -13.5435   -3.4439 C   0  0  2  0  0  0  0  0  0  0  0  0
    9.5966  -13.0436   -3.8493 C   0  0  1  0  0  0  0  0  0  0  0  0
    8.5586  -14.2874   -3.8249 C   0  0  1  0  0  0  0  0  0  0  0  0
    7.1016  -13.8941   -4.1949 C   0  0  0  0  0  0  0  0  0  0  0  0
    8.9535  -20.4842   -4.8529 C   0  0  1  0  0  0  0  0  0  0  0  0
   10.4585  -20.3980   -4.2820 C   0  0  0  0  0  0  0  0  0  0  0  0
   10.9841  -18.8998   -4.3141 C   0  0  2  0  0  0  0  0  0  0  0  0
    9.0774  -12.0538   -2.8995 F   0  0  0  0  0  0  0  0  0  0  0  0
   12.9611  -15.1350   -4.2398 N   0  0  0  0  0  0  0  0  0  0  0  0
    6.1674  -14.9557   -4.1042 N   0  0  0  0  0  0  0  0  0  0  0  0
    8.5475  -21.9241   -4.7948 N   0  0  0  0  0  0  0  0  0  0  0  0
   12.3411  -18.8053   -3.7844 N   0  0  0  0  0  0  0  0  0  0  0  0
   10.6215  -16.7297   -3.5002 O   0  0  0  0  0  0  0  0  0  0  0  0
    7.6776  -17.2206   -3.1000 O   0  0  0  0  0  0  0  0  0  0  0  0
    6.7176  -19.6528   -4.3613 O   0  0  0  0  0  0  0  0  0  0  0  0
   11.8093  -12.6287   -3.4699 O   0  0  0  0  0  0  0  0  0  0  0  0
    9.1287  -15.3720   -4.8133 O   0  0  0  0  0  0  0  0  0  0  0  0
  1  5  1  0  0  0  0
  1 18  1  1  0  0  0
  2 18  1  6  0  0  0
  2  3  1  0  0  0  0
  2 12  1  0  0  0  0
  3 19  1  1  0  0  0
  3  4  1  0  0  0  0
  4 20  1  6  0  0  0
  4 10  1  0  0  0  0
  5  6  1  0  0  0  0
  5 14  1  1  0  0  0
  6 21  1  6  0  0  0
  7 13  1  1  0  0  0
  7  6  1  0  0  0  0
  8  9  1  6  0  0  0
  8  7  1  0  0  0  0
 10 16  1  1  0  0  0
 11 10  1  0  0  0  0
 12 17  1  1  0  0  0
 12 11  1  0  0  0  0
 15  9  1  0  0  0  0
 22  8  1  0  0  0  0
 22  1  1  0  0  0  0
M  END
>  <CHROM.1>
-166.65812604,-46.87766156,-176.59506827,9.54251342,-16.51583851,-3.98547543
-1.41590401,-0.00394801,-3.04896039

>  <Name>
lig.pdb

>  <RI>
0

>  <Rbt.Current_Directory>
/home/itssahil/PROJECTS/Mol_Feturizer/New_Systems/rnas/5bxk

>  <Rbt.Executable>
rbdock ($Id: //depot/dev/client3/rdock/2013.1/src/exe/rbdock.cxx#4 $)

>  <Rbt.Library>
libRbt.so (2013.1, Build901 2013/11/27)

>  <Rbt.Parameter_File>
/export/apps/rDock/src/rDock_2013.1_src/data/scripts/dock_solv.prm

>  <Rbt.Receptor>
prm/blind_docking_40.prm

>  <SCORE>
-8.17486

>  <SCORE.INTER>
-6.20891

>  <SCORE.INTER.CONST>
1

>  <SCORE.INTER.POLAR>
0

>  <SCORE.INTER.ROT>
3

>  <SCORE.INTER.SOLV>
14.5403

>  <SCORE.INTER.VDW>
-14.586

>  <SCORE.INTER.norm>
-0.282223

>  <SCORE.INTRA>
-1.96595

>  <SCORE.INTRA.DIHEDRAL>
-5.37386

>  <SCORE.INTRA.DIHEDRAL.0>
7.18044

>  <SCORE.INTRA.POLAR>
0

>  <SCORE.INTRA.POLAR.0>
0

>  <SCORE.INTRA.REPUL>
0

>  <SCORE.INTRA.REPUL.0>
0

>  <SCORE.INTRA.SOLV>
1.73581

>  <SCORE.INTRA.SOLV.lig_0>
-72.0615

>  <SCORE.INTRA.VDW>
-0.146924

>  <SCORE.INTRA.VDW.0>
-1.54792

>  <SCORE.INTRA.norm>
-0.0893613

>  <SCORE.RESTR>
0

>  <SCORE.RESTR.CAVITY>
0

>  <SCORE.RESTR.norm>
0

>  <SCORE.SYSTEM>
0

>  <SCORE.SYSTEM.CONST>
0

>  <SCORE.SYSTEM.DIHEDRAL>
0

>  <SCORE.SYSTEM.SOLV>
0

>  <SCORE.SYSTEM.norm>
0

>  <SCORE.heavy>
22

>  <SCORE.norm>
-0.371584

>  <RMSD>
33.344

$$$$
lig.pdb
 OpenBabel11021811523D
libRbt.so/2013.1/901 2013/11/27
 22 23  0  0  0  0  0  0  0  0999 V2000
   10.0663  -15.7355   -5.1167 C   0  0  1  0  0  0  0  0  0  0  0  0
    9.7243  -18.0505   -4.2377 C   0  0  1  0  0  0  0  0  0  0  0  0
   10.8054  -19.1157   -3.6168 C   0  0  1  0  0  0  0  0  0  0  0  0
   10.1572  -20.5861   -3.7307 C   0  0  2  0  0  0  0  0  0  0  0  0
   11.1185  -14.5369   -5.1098 C   0  0  1  0  0  0  0  0  0  0  0  0
   10.8692  -13.5883   -3.8731 C   0  0  2  0  0  0  0  0  0  0  0  0
    9.3967  -12.9589   -4.0071 C   0  0  1  0  0  0  0  0  0  0  0  0
    8.2808  -14.1320   -3.9476 C   0  0  1  0  0  0  0  0  0  0  0  0
    6.8204  -13.6130   -4.0591 C   0  0  0  0  0  0  0  0  0  0  0  0
    8.8312  -20.6030   -2.8231 C   0  0  1  0  0  0  0  0  0  0  0  0
    7.8007  -19.5356   -3.4533 C   0  0  0  0  0  0  0  0  0  0  0  0
    8.4159  -18.0722   -3.4117 C   0  0  2  0  0  0  0  0  0  0  0  0
    9.0934  -12.0440   -2.9014 F   0  0  0  0  0  0  0  0  0  0  0  0
   12.5035  -15.2010   -5.0873 N   0  0  0  0  0  0  0  0  0  0  0  0
    5.8304  -14.6202   -3.9423 N   0  0  0  0  0  0  0  0  0  0  0  0
    8.1679  -21.9433   -2.8944 N   0  0  0  0  0  0  0  0  0  0  0  0
    7.4985  -17.0975   -3.9946 N   0  0  0  0  0  0  0  0  0  0  0  0
   10.1767  -16.7173   -4.1647 O   0  0  0  0  0  0  0  0  0  0  0  0
   12.0435  -19.0624   -4.4539 O   0  0  0  0  0  0  0  0  0  0  0  0
   11.0656  -21.4939   -3.2052 O   0  0  0  0  0  0  0  0  0  0  0  0
   11.6658  -12.7232   -3.9213 O   0  0  0  0  0  0  0  0  0  0  0  0
    8.6216  -15.1400   -5.1078 O   0  0  0  0  0  0  0  0  0  0  0  0
  1  5  1  0  0  0  0
  1 18  1  1  0  0  0
  2 18  1  1  0  0  0
  2  3  1  0  0  0  0
  2 12  1  0  0  0  0
  3 19  1  6  0  0  0
  3  4  1  0  0  0  0
  4 20  1  1  0  0  0
  4 10  1  0  0  0  0
  5  6  1  0  0  0  0
  5 14  1  1  0  0  0
  6 21  1  6  0  0  0
  7 13  1  1  0  0  0
  7  6  1  0  0  0  0
  8  9  1  6  0  0  0
  8  7  1  0  0  0  0
 10 16  1  6  0  0  0
 11 10  1  0  0  0  0
 12 17  1  6  0  0  0
 12 11  1  0  0  0  0
 15  9  1  0  0  0  0
 22  8  1  0  0  0  0
 22  1  1  0  0  0  0
M  END
>  <CHROM.1>
-155.02711457,138.44048864,-177.03755333,9.52138659,-16.59794387,-3.94623514
-1.60834091,-0.14829590,3.05445103

>  <Name>
lig.pdb

>  <RI>
0

>  <Rbt.Current_Directory>
/home/itssahil/PROJECTS/Mol_Feturizer/New_Systems/rnas/5bxk

>  <Rbt.Executable>
rbdock ($Id: //depot/dev/client3/rdock/2013.1/src/exe/rbdock.cxx#4 $)

>  <Rbt.Library>
libRbt.so (2013.1, Build901 2013/11/27)

>  <Rbt.Parameter_File>
/export/apps/rDock/src/rDock_2013.1_src/data/scripts/dock_solv.prm

>  <Rbt.Receptor>
prm/blind_docking_60.prm

>  <SCORE>
-4.42863

>  <SCORE.INTER>
-6.83572

>  <SCORE.INTER.CONST>
1

>  <SCORE.INTER.POLAR>
0

>  <SCORE.INTER.ROT>
3

>  <SCORE.INTER.SOLV>
12.7467

>  <SCORE.INTER.VDW>
-14.406

>  <SCORE.INTER.norm>
-0.310714

>  <SCORE.INTRA>
2.40709

>  <SCORE.INTRA.DIHEDRAL>
1.19938

>  <SCORE.INTRA.DIHEDRAL.0>
7.18044

>  <SCORE.INTRA.POLAR>
0

>  <SCORE.INTRA.POLAR.0>
0

>  <SCORE.INTRA.REPUL>
0

>  <SCORE.INTRA.REPUL.0>
0

>  <SCORE.INTRA.SOLV>
3.40016

>  <SCORE.INTRA.SOLV.lig_0>
-72.0615

>  <SCORE.INTRA.VDW>
0.107314

>  <SCORE.INTRA.VDW.0>
-1.54792

>  <SCORE.INTRA.norm>
0.109413

>  <SCORE.RESTR>
0

>  <SCORE.RESTR.CAVITY>
0

>  <SCORE.RESTR.norm>
0

>  <SCORE.SYSTEM>
0

>  <SCORE.SYSTEM.CONST>
0

>  <SCORE.SYSTEM.DIHEDRAL>
0

>  <SCORE.SYSTEM.SOLV>
0

>  <SCORE.SYSTEM.norm>
0

>  <SCORE.heavy>
22

>  <SCORE.norm>
-0.201301

>  <RMSD>
33.369

$$$$
lig.pdb
 OpenBabel11021811523D
libRbt.so/2013.1/901 2013/11/27
 22 23  0  0  0  0  0  0  0  0999 V2000
    9.4666  -15.4298   -5.0096 C   0  0  1  0  0  0  0  0  0  0  0  0
   10.3394  -17.7015   -4.4383 C   0  0  1  0  0  0  0  0  0  0  0  0
   11.9709  -17.5655   -4.5328 C   0  0  1  0  0  0  0  0  0  0  0  0
   12.5632  -19.0340   -4.8292 C   0  0  2  0  0  0  0  0  0  0  0  0
    9.7381  -13.9411   -4.5057 C   0  0  1  0  0  0  0  0  0  0  0  0
    8.6649  -13.5165   -3.4290 C   0  0  2  0  0  0  0  0  0  0  0  0
    7.2141  -13.5529   -4.1192 C   0  0  1  0  0  0  0  0  0  0  0  0
    6.8565  -15.0622   -4.5872 C   0  0  1  0  0  0  0  0  0  0  0  0
    5.4613  -15.1955   -5.2581 C   0  0  0  0  0  0  0  0  0  0  0  0
   12.1915  -19.9687   -3.5761 C   0  0  1  0  0  0  0  0  0  0  0  0
   10.5840  -20.0663   -3.5061 C   0  0  0  0  0  0  0  0  0  0  0  0
    9.9464  -18.6319   -3.2658 C   0  0  2  0  0  0  0  0  0  0  0  0
    6.1573  -13.1486   -3.1858 F   0  0  0  0  0  0  0  0  0  0  0  0
   11.1721  -13.9449   -3.9549 N   0  0  0  0  0  0  0  0  0  0  0  0
    4.3724  -14.8544   -4.4178 N   0  0  0  0  0  0  0  0  0  0  0  0
   12.7032  -21.3589   -3.7929 N   0  0  0  0  0  0  0  0  0  0  0  0
    8.4892  -18.7039   -3.2164 N   0  0  0  0  0  0  0  0  0  0  0  0
    9.7107  -16.4726   -4.1519 O   0  0  0  0  0  0  0  0  0  0  0  0
   12.2964  -16.6671   -5.6831 O   0  0  0  0  0  0  0  0  0  0  0  0
   13.9445  -18.9280   -4.9088 O   0  0  0  0  0  0  0  0  0  0  0  0
    8.9088  -12.4134   -3.0986 O   0  0  0  0  0  0  0  0  0  0  0  0
    8.0069  -15.5189   -5.5601 O   0  0  0  0  0  0  0  0  0  0  0  0
  1  5  1  0  0  0  0
  1 18  1  1  0  0  0
  2 18  1  1  0  0  0
  2  3  1  0  0  0  0
  2 12  1  0  0  0  0
  3 19  1  6  0  0  0
  3  4  1  0  0  0  0
  4 20  1  1  0  0  0
  4 10  1  0  0  0  0
  5  6  1  0  0  0  0
  5 14  1  1  0  0  0
  6 21  1  6  0  0  0
  7 13  1  1  0  0  0
  7  6  1  0  0  0  0
  8  9  1  6  0  0  0
  8  7  1  0  0  0  0
 10 16  1  6  0  0  0
 11 10  1  0  0  0  0
 12 17  1  6  0  0  0
 12 11  1  0  0  0  0
 15  9  1  0  0  0  0
 22  8  1  0  0  0  0
 22  1  1  0  0  0  0
M  END
>  <CHROM.1>
-137.03784172,77.50582771,-61.91389389,9.54686026,-16.37355557,-4.22627406
-2.35385549,-0.06498240,3.10619315

>  <Name>
lig.pdb

>  <RI>
0

>  <Rbt.Current_Directory>
/home/itssahil/PROJECTS/Mol_Feturizer/New_Systems/rnas/5bxk

>  <Rbt.Executable>
rbdock ($Id: //depot/dev/client3/rdock/2013.1/src/exe/rbdock.cxx#4 $)

>  <Rbt.Library>
libRbt.so (2013.1, Build901 2013/11/27)

>  <Rbt.Parameter_File>
/export/apps/rDock/src/rDock_2013.1_src/data/scripts/dock_solv.prm

>  <Rbt.Receptor>
prm/blind_docking_100.prm

>  <SCORE>
-4.98427

>  <SCORE.INTER>
-5.33725

>  <SCORE.INTER.CONST>
1

>  <SCORE.INTER.POLAR>
0

>  <SCORE.INTER.ROT>
3

>  <SCORE.INTER.SOLV>
14.5664

>  <SCORE.INTER.VDW>
-14.0136

>  <SCORE.INTER.norm>
-0.242602

>  <SCORE.INTRA>
0.352986

>  <SCORE.INTRA.DIHEDRAL>
0.0183918

>  <SCORE.INTRA.DIHEDRAL.0>
7.18044

>  <SCORE.INTRA.POLAR>
0

>  <SCORE.INTRA.POLAR.0>
0

>  <SCORE.INTRA.REPUL>
0

>  <SCORE.INTRA.REPUL.0>
0

>  <SCORE.INTRA.SOLV>
0.85201

>  <SCORE.INTRA.SOLV.lig_0>
-72.0615

>  <SCORE.INTRA.VDW>
-0.082215

>  <SCORE.INTRA.VDW.0>
-1.54792

>  <SCORE.INTRA.norm>
0.0160448

>  <SCORE.RESTR>
0

>  <SCORE.RESTR.CAVITY>
0

>  <SCORE.RESTR.norm>
0

>  <SCORE.SYSTEM>
0

>  <SCORE.SYSTEM.CONST>
0

>  <SCORE.SYSTEM.DIHEDRAL>
0

>  <SCORE.SYSTEM.SOLV>
0

>  <SCORE.SYSTEM.norm>
0

>  <SCORE.heavy>
22

>  <SCORE.norm>
-0.226558

>  <RMSD>
33.375

$$$$
lig.pdb
 OpenBabel11021811523D
libRbt.so/2013.1/901 2013/11/27
 22 23  0  0  0  0  0  0  0  0999 V2000
    9.3185  -15.6008   -4.8217 C   0  0  1  0  0  0  0  0  0  0  0  0
    9.4715  -17.9608   -4.0122 C   0  0  1  0  0  0  0  0  0  0  0  0
   10.9426  -18.6305   -3.7357 C   0  0  1  0  0  0  0  0  0  0  0  0
   10.7913  -20.2241   -3.9162 C   0  0  2  0  0  0  0  0  0  0  0  0
    9.6768  -14.0870   -4.4692 C   0  0  1  0  0  0  0  0  0  0  0  0
    8.6127  -13.4841   -3.4714 C   0  0  2  0  0  0  0  0  0  0  0  0
    7.1764  -13.5022   -4.1919 C   0  0  1  0  0  0  0  0  0  0  0  0
    6.7302  -15.0271   -4.5089 C   0  0  1  0  0  0  0  0  0  0  0  0
    5.3426  -15.1428   -5.1986 C   0  0  0  0  0  0  0  0  0  0  0  0
    9.7648  -20.7439   -2.7946 C   0  0  1  0  0  0  0  0  0  0  0  0
    8.3377  -20.0545   -3.0889 C   0  0  0  0  0  0  0  0  0  0  0  0
    8.4454  -18.4743   -2.9738 C   0  0  2  0  0  0  0  0  0  0  0  0
    6.1302  -12.9357   -3.3340 F   0  0  0  0  0  0  0  0  0  0  0  0
   11.0964  -14.1225   -3.8835 N   0  0  0  0  0  0  0  0  0  0  0  0
    4.2564  -14.6910   -4.4086 N   0  0  0  0  0  0  0  0  0  0  0  0
    9.5669  -22.2230   -2.9144 N   0  0  0  0  0  0  0  0  0  0  0  0
    7.1626  -17.8363   -3.2541 N   0  0  0  0  0  0  0  0  0  0  0  0
    9.4773  -16.5601   -3.8537 O   0  0  0  0  0  0  0  0  0  0  0  0
   11.8912  -18.1107   -4.7683 O   0  0  0  0  0  0  0  0  0  0  0  0
   12.0323  -20.7991   -3.6819 O   0  0  0  0  0  0  0  0  0  0  0  0
    8.9216  -12.3698   -3.2518 O   0  0  0  0  0  0  0  0  0  0  0  0
    7.8671  -15.6557   -5.3981 O   0  0  0  0  0  0  0  0  0  0  0  0
  1  5  1  0  0  0  0
  1 18  1  1  0  0  0
  2 18  1  1  0  0  0
  2  3  1  0  0  0  0
  2 12  1  0  0  0  0
  3 19  1  6  0  0  0
  3  4  1  0  0  0  0
  4 20  1  1  0  0  0
  4 10  1  0  0  0  0
  5  6  1  0  0  0  0
  5 14  1  1  0  0  0
  6 21  1  6  0  0  0
  7 13  1  1  0  0  0
  7  6  1  0  0  0  0
  8  9  1  6  0  0  0
  8  7  1  0  0  0  0
 10 16  1  6  0  0  0
 11 10  1  0  0  0  0
 12 17  1  6  0  0  0
 12 11  1  0  0  0  0
 15  9  1  0  0  0  0
 22  8  1  0  0  0  0
 22  1  1  0  0  0  0
M  END
>  <CHROM.1>
-166.73117947,111.98632289,-64.06002080,8.76108843,-16.67517639,-3.90646656
-2.04266550,-0.01252006,3.04544770

>  <Name>
lig.pdb

>  <RI>
0

>  <Rbt.Current_Directory>
/home/itssahil/PROJECTS/Mol_Feturizer/New_Systems/rnas/5bxk

>  <Rbt.Executable>
rbdock ($Id: //depot/dev/client3/rdock/2013.1/src/exe/rbdock.cxx#4 $)

>  <Rbt.Library>
libRbt.so (2013.1, Build901 2013/11/27)

>  <Rbt.Parameter_File>
/export/apps/rDock/src/rDock_2013.1_src/data/scripts/dock_solv.prm

>  <Rbt.Receptor>
prm/blind_docking_40.prm

>  <SCORE>
-4.57218

>  <SCORE.INTER>
-5.36135

>  <SCORE.INTER.CONST>
1

>  <SCORE.INTER.POLAR>
0

>  <SCORE.INTER.ROT>
3

>  <SCORE.INTER.SOLV>
13.7225

>  <SCORE.INTER.VDW>
-13.7484

>  <SCORE.INTER.norm>
-0.243698

>  <SCORE.INTRA>
0.789162

>  <SCORE.INTRA.DIHEDRAL>
0.704454

>  <SCORE.INTRA.DIHEDRAL.0>
7.18044

>  <SCORE.INTRA.POLAR>
0

>  <SCORE.INTRA.POLAR.0>
0

>  <SCORE.INTRA.REPUL>
0

>  <SCORE.INTRA.REPUL.0>
0

>  <SCORE.INTRA.SOLV>
1.62207

>  <SCORE.INTRA.SOLV.lig_0>
-72.0615

>  <SCORE.INTRA.VDW>
-0.3741

>  <SCORE.INTRA.VDW.0>
-1.54792

>  <SCORE.INTRA.norm>
0.035871

>  <SCORE.RESTR>
0

>  <SCORE.RESTR.CAVITY>
0

>  <SCORE.RESTR.norm>
0

>  <SCORE.SYSTEM>
0

>  <SCORE.SYSTEM.CONST>
0

>  <SCORE.SYSTEM.DIHEDRAL>
0

>  <SCORE.SYSTEM.SOLV>
0

>  <SCORE.SYSTEM.norm>
0

>  <SCORE.heavy>
22

>  <SCORE.norm>
-0.207827

>  <RMSD>
33.429

$$$$
lig.pdb
 OpenBabel11021811523D
libRbt.so/2013.1/901 2013/11/27
 22 23  0  0  0  0  0  0  0  0999 V2000
   10.6413  -19.9082   -3.0840 C   0  0  1  0  0  0  0  0  0  0  0  0
   10.9967  -17.6998   -4.1998 C   0  0  1  0  0  0  0  0  0  0  0  0
    9.7243  -16.9240   -3.5155 C   0  0  1  0  0  0  0  0  0  0  0  0
    9.3862  -15.6443   -4.4337 C   0  0  2  0  0  0  0  0  0  0  0  0
   11.3364  -21.0920   -2.2719 C   0  0  1  0  0  0  0  0  0  0  0  0
   12.3146  -21.9050   -3.2065 C   0  0  2  0  0  0  0  0  0  0  0  0
   11.4530  -22.5553   -4.3969 C   0  0  1  0  0  0  0  0  0  0  0  0
   10.7805  -21.3903   -5.3000 C   0  0  1  0  0  0  0  0  0  0  0  0
    9.9340  -21.9283   -6.4867 C   0  0  0  0  0  0  0  0  0  0  0  0
   10.6656  -14.6726   -4.4012 C   0  0  1  0  0  0  0  0  0  0  0  0
   11.8969  -15.4726   -5.0661 C   0  0  0  0  0  0  0  0  0  0  0  0
   12.2376  -16.7753   -4.2243 C   0  0  2  0  0  0  0  0  0  0  0  0
   12.2896  -23.3491   -5.3032 F   0  0  0  0  0  0  0  0  0  0  0  0
   12.0540  -20.4196   -1.0918 N   0  0  0  0  0  0  0  0  0  0  0  0
    8.8469  -22.7529   -6.1043 N   0  0  0  0  0  0  0  0  0  0  0  0
   10.4231  -13.4631   -5.2495 N   0  0  0  0  0  0  0  0  0  0  0  0
   13.3413  -17.5182   -4.8252 N   0  0  0  0  0  0  0  0  0  0  0  0
   11.4014  -18.8298   -3.4604 O   0  0  0  0  0  0  0  0  0  0  0  0
    8.5533  -17.8541   -3.5251 O   0  0  0  0  0  0  0  0  0  0  0  0
    8.3109  -14.9807   -3.8601 O   0  0  0  0  0  0  0  0  0  0  0  0
   12.7924  -22.7647   -2.5601 O   0  0  0  0  0  0  0  0  0  0  0  0
    9.9105  -20.5094   -4.3276 O   0  0  0  0  0  0  0  0  0  0  0  0
  1  5  1  0  0  0  0
  1 18  1  6  0  0  0
  2 18  1  1  0  0  0
  2  3  1  0  0  0  0
  2 12  1  0  0  0  0
  3 19  1  6  0  0  0
  3  4  1  0  0  0  0
  4 20  1  1  0  0  0
  4 10  1  0  0  0  0
  5  6  1  0  0  0  0
  5 14  1  1  0  0  0
  6 21  1  1  0  0  0
  7 13  1  6  0  0  0
  7  6  1  0  0  0  0
  8  9  1  6  0  0  0
  8  7  1  0  0  0  0
 10 16  1  6  0  0  0
 11 10  1  0  0  0  0
 12 17  1  6  0  0  0
 12 11  1  0  0  0  0
 15  9  1  0  0  0  0
 22  8  1  0  0  0  0
 22  1  1  0  0  0  0
M  END
>  <CHROM.1>
178.59771219,55.92811289,59.98235967,10.87520800,-19.09168012,-4.13900771
-1.36468050,-0.63034933,0.09980222

>  <Name>
lig.pdb

>  <RI>
0

>  <Rbt.Current_Directory>
/home/itssahil/PROJECTS/Mol_Feturizer/New_Systems/rnas/5bxk

>  <Rbt.Executable>
rbdock ($Id: //depot/dev/client3/rdock/2013.1/src/exe/rbdock.cxx#4 $)

>  <Rbt.Library>
libRbt.so (2013.1, Build901 2013/11/27)

>  <Rbt.Parameter_File>
/export/apps/rDock/src/rDock_2013.1_src/data/scripts/dock_solv.prm

>  <Rbt.Receptor>
prm/blind_docking_80.prm

>  <SCORE>
-6.10657

>  <SCORE.INTER>
-2.27067

>  <SCORE.INTER.CONST>
1

>  <SCORE.INTER.POLAR>
0

>  <SCORE.INTER.ROT>
3

>  <SCORE.INTER.SOLV>
20.9434

>  <SCORE.INTER.VDW>
-14.0949

>  <SCORE.INTER.norm>
-0.103212

>  <SCORE.INTRA>
-3.8359

>  <SCORE.INTRA.DIHEDRAL>
-6.95418

>  <SCORE.INTRA.DIHEDRAL.0>
7.18044

>  <SCORE.INTRA.POLAR>
0

>  <SCORE.INTRA.POLAR.0>
0

>  <SCORE.INTRA.REPUL>
0

>  <SCORE.INTRA.REPUL.0>
0

>  <SCORE.INTRA.SOLV>
-0.776888

>  <SCORE.INTRA.SOLV.lig_0>
-72.0615

>  <SCORE.INTRA.VDW>
0.0296321

>  <SCORE.INTRA.VDW.0>
-1.54792

>  <SCORE.INTRA.norm>
-0.174359

>  <SCORE.RESTR>
0

>  <SCORE.RESTR.CAVITY>
0

>  <SCORE.RESTR.norm>
0

>  <SCORE.SYSTEM>
0

>  <SCORE.SYSTEM.CONST>
0

>  <SCORE.SYSTEM.DIHEDRAL>
0

>  <SCORE.SYSTEM.SOLV>
0

>  <SCORE.SYSTEM.norm>
0

>  <SCORE.heavy>
22

>  <SCORE.norm>
-0.277571

>  <RMSD>
33.429

$$$$
lig.pdb
 OpenBabel11021811523D
libRbt.so/2013.1/901 2013/11/27
 22 23  0  0  0  0  0  0  0  0999 V2000
    8.4851  -19.5678   -3.4500 C   0  0  1  0  0  0  0  0  0  0  0  0
    9.6640  -17.4440   -4.0398 C   0  0  1  0  0  0  0  0  0  0  0  0
    8.4667  -16.3409   -3.8431 C   0  0  1  0  0  0  0  0  0  0  0  0
    8.8429  -15.0531   -4.7347 C   0  0  2  0  0  0  0  0  0  0  0  0
    8.3456  -20.7245   -2.3606 C   0  0  1  0  0  0  0  0  0  0  0  0
    9.5687  -21.7183   -2.4483 C   0  0  2  0  0  0  0  0  0  0  0  0
    9.5630  -22.4001   -3.9034 C   0  0  1  0  0  0  0  0  0  0  0  0
    9.7742  -21.2735   -5.0485 C   0  0  1  0  0  0  0  0  0  0  0  0
    9.7935  -21.8453   -6.4932 C   0  0  0  0  0  0  0  0  0  0  0  0
   10.2113  -14.4437   -4.1531 C   0  0  1  0  0  0  0  0  0  0  0  0
   11.3587  -15.5589   -4.3493 C   0  0  0  0  0  0  0  0  0  0  0  0
   11.0082  -16.8725   -3.5286 C   0  0  2  0  0  0  0  0  0  0  0  0
   10.6624  -23.3585   -4.0594 F   0  0  0  0  0  0  0  0  0  0  0  0
    8.2503  -20.0080   -1.0051 N   0  0  0  0  0  0  0  0  0  0  0  0
   10.9084  -22.6710   -6.7815 N   0  0  0  0  0  0  0  0  0  0  0  0
   10.6279  -13.2457   -4.9485 N   0  0  0  0  0  0  0  0  0  0  0  0
   12.0321  -17.8971   -3.7106 N   0  0  0  0  0  0  0  0  0  0  0  0
    9.4535  -18.6112   -3.2779 O   0  0  0  0  0  0  0  0  0  0  0  0
    7.1962  -16.9372   -4.3595 O   0  0  0  0  0  0  0  0  0  0  0  0
    7.8350  -14.1133   -4.5723 O   0  0  0  0  0  0  0  0  0  0  0  0
    9.4112  -22.5500   -1.6305 O   0  0  0  0  0  0  0  0  0  0  0  0
    8.6199  -20.2190   -4.8641 O   0  0  0  0  0  0  0  0  0  0  0  0
  1  5  1  0  0  0  0
  1 18  1  1  0  0  0
  2 18  1  1  0  0  0
  2  3  1  0  0  0  0
  2 12  1  0  0  0  0
  3 19  1  6  0  0  0
  3  4  1  0  0  0  0
  4 20  1  1  0  0  0
  4 10  1  0  0  0  0
  5  6  1  0  0  0  0
  5 14  1  1  0  0  0
  6 21  1  1  0  0  0
  7 13  1  1  0  0  0
  7  6  1  0  0  0  0
  8  9  1  6  0  0  0
  8  7  1  0  0  0  0
 10 16  1  6  0  0  0
 11 10  1  0  0  0  0
 12 17  1  6  0  0  0
 12 11  1  0  0  0  0
 15  9  1  0  0  0  0
 22  8  1  0  0  0  0
 22  1  1  0  0  0  0
M  END
>  <CHROM.1>
-173.36307993,68.50640472,-67.02255627,9.53856438,-18.83607670,-3.98115103
1.51480909,-0.94233194,3.03611197

>  <Name>
lig.pdb

>  <RI>
0

>  <Rbt.Current_Directory>
/home/itssahil/PROJECTS/Mol_Feturizer/New_Systems/rnas/5bxk

>  <Rbt.Executable>
rbdock ($Id: //depot/dev/client3/rdock/2013.1/src/exe/rbdock.cxx#4 $)

>  <Rbt.Library>
libRbt.so (2013.1, Build901 2013/11/27)

>  <Rbt.Parameter_File>
/export/apps/rDock/src/rDock_2013.1_src/data/scripts/dock_solv.prm

>  <Rbt.Receptor>
prm/blind_docking_80.prm

>  <SCORE>
-6.36173

>  <SCORE.INTER>
-2.8586

>  <SCORE.INTER.CONST>
1

>  <SCORE.INTER.POLAR>
0

>  <SCORE.INTER.ROT>
3

>  <SCORE.INTER.SOLV>
18.8554

>  <SCORE.INTER.VDW>
-13.7909

>  <SCORE.INTER.norm>
-0.129937

>  <SCORE.INTRA>
-3.50313

>  <SCORE.INTRA.DIHEDRAL>
-6.31167

>  <SCORE.INTRA.DIHEDRAL.0>
7.18044

>  <SCORE.INTRA.POLAR>
0

>  <SCORE.INTRA.POLAR.0>
0

>  <SCORE.INTRA.REPUL>
0

>  <SCORE.INTRA.REPUL.0>
0

>  <SCORE.INTRA.SOLV>
-0.802003

>  <SCORE.INTRA.SOLV.lig_0>
-72.0615

>  <SCORE.INTRA.VDW>
0.0537084

>  <SCORE.INTRA.VDW.0>
-1.54792

>  <SCORE.INTRA.norm>
-0.159233

>  <SCORE.RESTR>
0

>  <SCORE.RESTR.CAVITY>
0

>  <SCORE.RESTR.norm>
0

>  <SCORE.SYSTEM>
0

>  <SCORE.SYSTEM.CONST>
0

>  <SCORE.SYSTEM.DIHEDRAL>
0

>  <SCORE.SYSTEM.SOLV>
0

>  <SCORE.SYSTEM.norm>
0

>  <SCORE.heavy>
22

>  <SCORE.norm>
-0.28917

>  <RMSD>
33.451

$$$$
lig.pdb
 OpenBabel11021811523D
libRbt.so/2013.1/901 2013/11/27
 22 23  0  0  0  0  0  0  0  0999 V2000
    8.4748  -19.5882   -3.4516 C   0  0  1  0  0  0  0  0  0  0  0  0
    9.6698  -17.4755   -4.0491 C   0  0  1  0  0  0  0  0  0  0  0  0
    8.4903  -16.3518   -3.8606 C   0  0  1  0  0  0  0  0  0  0  0  0
    8.8847  -15.0788   -4.7655 C   0  0  2  0  0  0  0  0  0  0  0  0
    8.3315  -20.7458   -2.3637 C   0  0  1  0  0  0  0  0  0  0  0  0
    9.5548  -21.7397   -2.4484 C   0  0  2  0  0  0  0  0  0  0  0  0
    9.5540  -22.4201   -3.9042 C   0  0  1  0  0  0  0  0  0  0  0  0
    9.7691  -21.2925   -5.0474 C   0  0  1  0  0  0  0  0  0  0  0  0
    9.7931  -21.8628   -6.4926 C   0  0  0  0  0  0  0  0  0  0  0  0
   10.2639  -14.4854   -4.1928 C   0  0  1  0  0  0  0  0  0  0  0  0
   11.3931  -15.6203   -4.3805 C   0  0  0  0  0  0  0  0  0  0  0  0
   11.0240  -16.9203   -3.5463 C   0  0  2  0  0  0  0  0  0  0  0  0
   10.6538  -23.3785   -4.0574 F   0  0  0  0  0  0  0  0  0  0  0  0
    8.2318  -20.0306   -1.0079 N   0  0  0  0  0  0  0  0  0  0  0  0
   10.9013  -22.7000   -6.7735 N   0  0  0  0  0  0  0  0  0  0  0  0
   10.6974  -13.3018   -5.0006 N   0  0  0  0  0  0  0  0  0  0  0  0
   12.0311  -17.9626   -3.7206 N   0  0  0  0  0  0  0  0  0  0  0  0
    9.4427  -18.6318   -3.2754 O   0  0  0  0  0  0  0  0  0  0  0  0
    7.2095  -16.9330   -4.3684 O   0  0  0  0  0  0  0  0  0  0  0  0
    7.8921  -14.1217   -4.6100 O   0  0  0  0  0  0  0  0  0  0  0  0
    9.3946  -22.5721   -1.6318 O   0  0  0  0  0  0  0  0  0  0  0  0
    8.6142  -20.2380   -4.8659 O   0  0  0  0  0  0  0  0  0  0  0  0
  1  5  1  0  0  0  0
  1 18  1  1  0  0  0
  2 18  1  1  0  0  0
  2  3  1  0  0  0  0
  2 12  1  0  0  0  0
  3 19  1  6  0  0  0
  3  4  1  0  0  0  0
  4 20  1  1  0  0  0
  4 10  1  0  0  0  0
  5  6  1  0  0  0  0
  5 14  1  1  0  0  0
  6 21  1  1  0  0  0
  7 13  1  1  0  0  0
  7  6  1  0  0  0  0
  8  9  1  6  0  0  0
  8  7  1  0  0  0  0
 10 16  1  6  0  0  0
 11 10  1  0  0  0  0
 12 17  1  6  0  0  0
 12 11  1  0  0  0  0
 15  9  1  0  0  0  0
 22  8  1  0  0  0  0
 22  1  1  0  0  0  0
M  END
>  <CHROM.1>
-174.53044356,69.88026748,-66.37601888,9.54700789,-18.86272532,-3.99231887
1.52690675,-0.93486915,3.03992540

>  <Name>
lig.pdb

>  <RI>
0

>  <Rbt.Current_Directory>
/home/itssahil/PROJECTS/Mol_Feturizer/New_Systems/rnas/5bxk

>  <Rbt.Executable>
rbdock ($Id: //depot/dev/client3/rdock/2013.1/src/exe/rbdock.cxx#4 $)

>  <Rbt.Library>
libRbt.so (2013.1, Build901 2013/11/27)

>  <Rbt.Parameter_File>
/export/apps/rDock/src/rDock_2013.1_src/data/scripts/dock_solv.prm

>  <Rbt.Receptor>
prm/blind_docking_100.prm

>  <SCORE>
-6.35515

>  <SCORE.INTER>
-2.87699

>  <SCORE.INTER.CONST>
1

>  <SCORE.INTER.POLAR>
0

>  <SCORE.INTER.ROT>
3

>  <SCORE.INTER.SOLV>
18.7502

>  <SCORE.INTER.VDW>
-13.7681

>  <SCORE.INTER.norm>
-0.130772

>  <SCORE.INTRA>
-3.47816

>  <SCORE.INTRA.DIHEDRAL>
-6.28838

>  <SCORE.INTRA.DIHEDRAL.0>
7.18044

>  <SCORE.INTRA.POLAR>
0

>  <SCORE.INTRA.POLAR.0>
0

>  <SCORE.INTRA.REPUL>
0

>  <SCORE.INTRA.REPUL.0>
0

>  <SCORE.INTRA.SOLV>
-0.756395

>  <SCORE.INTRA.SOLV.lig_0>
-72.0615

>  <SCORE.INTRA.VDW>
0.0442324

>  <SCORE.INTRA.VDW.0>
-1.54792

>  <SCORE.INTRA.norm>
-0.158098

>  <SCORE.RESTR>
0

>  <SCORE.RESTR.CAVITY>
0

>  <SCORE.RESTR.norm>
0

>  <SCORE.SYSTEM>
0

>  <SCORE.SYSTEM.CONST>
0

>  <SCORE.SYSTEM.DIHEDRAL>
0

>  <SCORE.SYSTEM.SOLV>
0

>  <SCORE.SYSTEM.norm>
0

>  <SCORE.heavy>
22

>  <SCORE.norm>
-0.28887

>  <RMSD>
33.466

$$$$
lig.pdb
 OpenBabel11021811523D
libRbt.so/2013.1/901 2013/11/27
 22 23  0  0  0  0  0  0  0  0999 V2000
    9.3323  -15.6519   -4.8358 C   0  0  1  0  0  0  0  0  0  0  0  0
    9.5125  -18.0095   -4.0247 C   0  0  1  0  0  0  0  0  0  0  0  0
   11.0083  -18.6441   -3.8033 C   0  0  1  0  0  0  0  0  0  0  0  0
   10.8882  -20.2409   -3.9792 C   0  0  2  0  0  0  0  0  0  0  0  0
    9.6882  -14.1369   -4.4861 C   0  0  1  0  0  0  0  0  0  0  0  0
    8.6221  -13.5332   -3.4909 C   0  0  2  0  0  0  0  0  0  0  0  0
    7.1868  -13.5546   -4.2131 C   0  0  1  0  0  0  0  0  0  0  0  0
    6.7429  -15.0807   -4.5274 C   0  0  1  0  0  0  0  0  0  0  0  0
    5.3563  -15.1996   -5.2186 C   0  0  0  0  0  0  0  0  0  0  0  0
    9.9164  -20.7845   -2.8207 C   0  0  1  0  0  0  0  0  0  0  0  0
    8.4635  -20.1292   -3.0616 C   0  0  0  0  0  0  0  0  0  0  0  0
    8.5379  -18.5469   -2.9494 C   0  0  2  0  0  0  0  0  0  0  0  0
    6.1388  -12.9876   -3.3577 F   0  0  0  0  0  0  0  0  0  0  0  0
   11.1071  -14.1695   -3.8985 N   0  0  0  0  0  0  0  0  0  0  0  0
    4.9316  -16.5309   -5.4543 N   0  0  0  0  0  0  0  0  0  0  0  0
    9.7493  -22.2680   -2.9341 N   0  0  0  0  0  0  0  0  0  0  0  0
    7.2309  -17.9395   -3.1817 N   0  0  0  0  0  0  0  0  0  0  0  0
    9.4910  -16.6089   -3.8656 O   0  0  0  0  0  0  0  0  0  0  0  0
   11.9055  -18.1021   -4.8698 O   0  0  0  0  0  0  0  0  0  0  0  0
   12.1502  -20.7862   -3.7912 O   0  0  0  0  0  0  0  0  0  0  0  0
    8.9294  -12.4181   -3.2732 O   0  0  0  0  0  0  0  0  0  0  0  0
    7.8817  -15.7098   -5.4139 O   0  0  0  0  0  0  0  0  0  0  0  0
  1  5  1  0  0  0  0
  1 18  1  1  0  0  0
  2 18  1  1  0  0  0
  2  3  1  0  0  0  0
  2 12  1  0  0  0  0
  3 19  1  6  0  0  0
  3  4  1  0  0  0  0
  4 20  1  1  0  0  0
  4 10  1  0  0  0  0
  5  6  1  0  0  0  0
  5 14  1  1  0  0  0
  6 21  1  6  0  0  0
  7 13  1  1  0  0  0
  7  6  1  0  0  0  0
  8  9  1  6  0  0  0
  8  7  1  0  0  0  0
 10 16  1  6  0  0  0
 11 10  1  0  0  0  0
 12 17  1  6  0  0  0
 12 11  1  0  0  0  0
 15  9  1  0  0  0  0
 22  8  1  0  0  0  0
 22  1  1  0  0  0  0
M  END
>  <CHROM.1>
-165.41013719,108.85334281,-177.73392352,8.83932729,-16.80045830,-3.97569762
-2.02393958,0.05745266,3.07186698

>  <Name>
lig.pdb

>  <RI>
0

>  <Rbt.Current_Directory>
/home/itssahil/PROJECTS/Mol_Feturizer/New_Systems/rnas/5bxk

>  <Rbt.Executable>
rbdock ($Id: //depot/dev/client3/rdock/2013.1/src/exe/rbdock.cxx#4 $)

>  <Rbt.Library>
libRbt.so (2013.1, Build901 2013/11/27)

>  <Rbt.Parameter_File>
/export/apps/rDock/src/rDock_2013.1_src/data/scripts/dock_solv.prm

>  <Rbt.Receptor>
prm/blind_docking_60.prm

>  <SCORE>
-4.56885

>  <SCORE.INTER>
-5.18339

>  <SCORE.INTER.CONST>
1

>  <SCORE.INTER.POLAR>
0

>  <SCORE.INTER.ROT>
3

>  <SCORE.INTER.SOLV>
13.3128

>  <SCORE.INTER.VDW>
-13.4932

>  <SCORE.INTER.norm>
-0.235609

>  <SCORE.INTRA>
0.604349

>  <SCORE.INTRA.DIHEDRAL>
0.540972

>  <SCORE.INTRA.DIHEDRAL.0>
7.18044

>  <SCORE.INTRA.POLAR>
0

>  <SCORE.INTRA.POLAR.0>
0

>  <SCORE.INTRA.REPUL>
0

>  <SCORE.INTRA.REPUL.0>
0

>  <SCORE.INTRA.SOLV>
1.58296

>  <SCORE.INTRA.SOLV.lig_0>
-72.0615

>  <SCORE.INTRA.VDW>
-0.457615

>  <SCORE.INTRA.VDW.0>
-1.54792

>  <SCORE.INTRA.norm>
0.0274704

>  <SCORE.RESTR>
0.0101914

>  <SCORE.RESTR.CAVITY>
0.0101914

>  <SCORE.RESTR.norm>
0.000463247

>  <SCORE.SYSTEM>
0

>  <SCORE.SYSTEM.CONST>
0

>  <SCORE.SYSTEM.DIHEDRAL>
0

>  <SCORE.SYSTEM.SOLV>
0

>  <SCORE.SYSTEM.norm>
0

>  <SCORE.heavy>
22

>  <SCORE.norm>
-0.207675

>  <RMSD>
33.479

$$$$
lig.pdb
 OpenBabel11021811523D
libRbt.so/2013.1/901 2013/11/27
 22 23  0  0  0  0  0  0  0  0999 V2000
   10.1107  -15.8932   -4.8800 C   0  0  1  0  0  0  0  0  0  0  0  0
    9.2659  -17.7516   -3.4373 C   0  0  1  0  0  0  0  0  0  0  0  0
    7.6935  -17.4189   -3.7632 C   0  0  1  0  0  0  0  0  0  0  0  0
    6.8336  -18.7289   -3.3899 C   0  0  2  0  0  0  0  0  0  0  0  0
   11.3498  -14.9277   -5.1563 C   0  0  1  0  0  0  0  0  0  0  0  0
   11.3588  -13.7302   -4.1280 C   0  0  2  0  0  0  0  0  0  0  0  0
   10.0097  -12.8806   -4.3292 C   0  0  1  0  0  0  0  0  0  0  0  0
    8.7173  -13.7971   -3.9906 C   0  0  1  0  0  0  0  0  0  0  0  0
    7.3629  -13.0519   -4.1479 C   0  0  0  0  0  0  0  0  0  0  0  0
    7.3226  -19.9201   -4.3512 C   0  0  1  0  0  0  0  0  0  0  0  0
    8.8723  -20.2080   -4.0138 C   0  0  0  0  0  0  0  0  0  0  0  0
    9.7585  -18.9256   -4.3170 C   0  0  2  0  0  0  0  0  0  0  0  0
    9.9502  -11.7309   -3.4202 F   0  0  0  0  0  0  0  0  0  0  0  0
   12.5987  -15.8163   -5.0538 N   0  0  0  0  0  0  0  0  0  0  0  0
    6.2238  -13.8352   -3.8364 N   0  0  0  0  0  0  0  0  0  0  0  0
    6.5696  -21.1778   -4.0470 N   0  0  0  0  0  0  0  0  0  0  0  0
   11.1629  -19.1679   -4.0003 N   0  0  0  0  0  0  0  0  0  0  0  0
   10.1221  -16.6774   -3.7542 O   0  0  0  0  0  0  0  0  0  0  0  0
    7.2660  -16.2878   -2.8832 O   0  0  0  0  0  0  0  0  0  0  0  0
    5.5011  -18.4563   -3.6647 O   0  0  0  0  0  0  0  0  0  0  0  0
   12.2857  -13.0504   -4.3810 O   0  0  0  0  0  0  0  0  0  0  0  0
    8.7937  -15.0539   -4.9355 O   0  0  0  0  0  0  0  0  0  0  0  0
  1  5  1  0  0  0  0
  1 18  1  1  0  0  0
  2 18  1  6  0  0  0
  2  3  1  0  0  0  0
  2 12  1  0  0  0  0
  3 19  1  1  0  0  0
  3  4  1  0  0  0  0
  4 20  1  6  0  0  0
  4 10  1  0  0  0  0
  5  6  1  0  0  0  0
  5 14  1  1  0  0  0
  6 21  1  6  0  0  0
  7 13  1  1  0  0  0
  7  6  1  0  0  0  0
  8  9  1  6  0  0  0
  8  7  1  0  0  0  0
 10 16  1  1  0  0  0
 11 10  1  0  0  0  0
 12 17  1  1  0  0  0
 12 11  1  0  0  0  0
 15  9  1  0  0  0  0
 22  8  1  0  0  0  0
 22  1  1  0  0  0  0
M  END
>  <CHROM.1>
-167.94493544,-44.16773862,-179.13492946,9.05132576,-16.20658169,-4.06693374
-1.13725427,-0.16120482,-3.12160049

>  <Name>
lig.pdb

>  <RI>
0

>  <Rbt.Current_Directory>
/home/itssahil/PROJECTS/Mol_Feturizer/New_Systems/rnas/5bxk

>  <Rbt.Executable>
rbdock ($Id: //depot/dev/client3/rdock/2013.1/src/exe/rbdock.cxx#4 $)

>  <Rbt.Library>
libRbt.so (2013.1, Build901 2013/11/27)

>  <Rbt.Parameter_File>
/export/apps/rDock/src/rDock_2013.1_src/data/scripts/dock_solv.prm

>  <Rbt.Receptor>
prm/blind_docking_40.prm

>  <SCORE>
-8.01868

>  <SCORE.INTER>
-6.23701

>  <SCORE.INTER.CONST>
1

>  <SCORE.INTER.POLAR>
0

>  <SCORE.INTER.ROT>
3

>  <SCORE.INTER.SOLV>
19.5348

>  <SCORE.INTER.VDW>
-16.2696

>  <SCORE.INTER.norm>
-0.2835

>  <SCORE.INTRA>
-1.78168

>  <SCORE.INTRA.DIHEDRAL>
-5.20667

>  <SCORE.INTRA.DIHEDRAL.0>
7.18044

>  <SCORE.INTRA.POLAR>
0

>  <SCORE.INTRA.POLAR.0>
0

>  <SCORE.INTRA.REPUL>
0

>  <SCORE.INTRA.REPUL.0>
0

>  <SCORE.INTRA.SOLV>
1.75534

>  <SCORE.INTRA.SOLV.lig_0>
-72.0615

>  <SCORE.INTRA.VDW>
-0.0560123

>  <SCORE.INTRA.VDW.0>
-1.54792

>  <SCORE.INTRA.norm>
-0.0809852

>  <SCORE.RESTR>
0

>  <SCORE.RESTR.CAVITY>
0

>  <SCORE.RESTR.norm>
0

>  <SCORE.SYSTEM>
0

>  <SCORE.SYSTEM.CONST>
0

>  <SCORE.SYSTEM.DIHEDRAL>
0

>  <SCORE.SYSTEM.SOLV>
0

>  <SCORE.SYSTEM.norm>
0

>  <SCORE.heavy>
22

>  <SCORE.norm>
-0.364486

>  <RMSD>
33.502

$$$$
lig.pdb
 OpenBabel11021811523D
libRbt.so/2013.1/901 2013/11/27
 22 23  0  0  0  0  0  0  0  0999 V2000
   10.2248  -18.9045   -4.0804 C   0  0  1  0  0  0  0  0  0  0  0  0
    7.8230  -18.4592   -3.5498 C   0  0  1  0  0  0  0  0  0  0  0  0
    7.7925  -16.8710   -3.9571 C   0  0  1  0  0  0  0  0  0  0  0  0
    6.2646  -16.4857   -4.2919 C   0  0  2  0  0  0  0  0  0  0  0  0
   11.5692  -19.5965   -3.5725 C   0  0  1  0  0  0  0  0  0  0  0  0
   12.2239  -18.7496   -2.4126 C   0  0  2  0  0  0  0  0  0  0  0  0
   12.5983  -17.2992   -2.9946 C   0  0  1  0  0  0  0  0  0  0  0  0
   11.2557  -16.5213   -3.4607 C   0  0  1  0  0  0  0  0  0  0  0  0
   11.5213  -15.0998   -4.0292 C   0  0  0  0  0  0  0  0  0  0  0  0
    5.8125  -17.3571   -5.5640 C   0  0  1  0  0  0  0  0  0  0  0  0
    5.8694  -18.9090   -5.1317 C   0  0  0  0  0  0  0  0  0  0  0  0
    7.3508  -19.3269   -4.7410 C   0  0  2  0  0  0  0  0  0  0  0  0
   13.2343  -16.4531   -1.9791 F   0  0  0  0  0  0  0  0  0  0  0  0
   11.1655  -21.0107   -3.1289 N   0  0  0  0  0  0  0  0  0  0  0  0
   12.2900  -15.0792   -5.2195 N   0  0  0  0  0  0  0  0  0  0  0  0
    4.3903  -17.0568   -5.9226 N   0  0  0  0  0  0  0  0  0  0  0  0
    7.4134  -20.7268   -4.3317 N   0  0  0  0  0  0  0  0  0  0  0  0
    9.1244  -18.9178   -3.2610 O   0  0  0  0  0  0  0  0  0  0  0  0
    8.2469  -16.0789   -2.7728 O   0  0  0  0  0  0  0  0  0  0  0  0
    6.2303  -15.1429   -4.6396 O   0  0  0  0  0  0  0  0  0  0  0  0
   13.2102  -19.3005   -2.0823 O   0  0  0  0  0  0  0  0  0  0  0  0
   10.5459  -17.4408   -4.5233 O   0  0  0  0  0  0  0  0  0  0  0  0
  1  5  1  0  0  0  0
  1 18  1  1  0  0  0
  2 18  1  6  0  0  0
  2  3  1  0  0  0  0
  2 12  1  0  0  0  0
  3 19  1  1  0  0  0
  3  4  1  0  0  0  0
  4 20  1  6  0  0  0
  4 10  1  0  0  0  0
  5  6  1  0  0  0  0
  5 14  1  1  0  0  0
  6 21  1  6  0  0  0
  7 13  1  1  0  0  0
  7  6  1  0  0  0  0
  8  9  1  6  0  0  0
  8  7  1  0  0  0  0
 10 16  1  1  0  0  0
 11 10  1  0  0  0  0
 12 17  1  1  0  0  0
 12 11  1  0  0  0  0
 15  9  1  0  0  0  0
 22  8  1  0  0  0  0
 22  1  1  0  0  0  0
M  END
>  <CHROM.1>
-174.81569338,-58.70722706,63.84379265,9.43794882,-17.72366153,-3.84967015
0.07576976,0.29274984,3.02650866

>  <Name>
lig.pdb

>  <RI>
0

>  <Rbt.Current_Directory>
/home/itssahil/PROJECTS/Mol_Feturizer/New_Systems/rnas/5bxk

>  <Rbt.Executable>
rbdock ($Id: //depot/dev/client3/rdock/2013.1/src/exe/rbdock.cxx#4 $)

>  <Rbt.Library>
libRbt.so (2013.1, Build901 2013/11/27)

>  <Rbt.Parameter_File>
/export/apps/rDock/src/rDock_2013.1_src/data/scripts/dock_solv.prm

>  <Rbt.Receptor>
prm/blind_docking_80.prm

>  <SCORE>
-7.75593

>  <SCORE.INTER>
-4.68326

>  <SCORE.INTER.CONST>
1

>  <SCORE.INTER.POLAR>
0

>  <SCORE.INTER.ROT>
3

>  <SCORE.INTER.SOLV>
14.4262

>  <SCORE.INTER.VDW>
-13.5309

>  <SCORE.INTER.norm>
-0.212876

>  <SCORE.INTRA>
-3.07267

>  <SCORE.INTRA.DIHEDRAL>
-6.85582

>  <SCORE.INTRA.DIHEDRAL.0>
7.18044

>  <SCORE.INTRA.POLAR>
0

>  <SCORE.INTRA.POLAR.0>
0

>  <SCORE.INTRA.REPUL>
0

>  <SCORE.INTRA.REPUL.0>
0

>  <SCORE.INTRA.SOLV>
0.860628

>  <SCORE.INTRA.SOLV.lig_0>
-72.0615

>  <SCORE.INTRA.VDW>
-0.0750745

>  <SCORE.INTRA.VDW.0>
-1.54792

>  <SCORE.INTRA.norm>
-0.139667

>  <SCORE.RESTR>
0

>  <SCORE.RESTR.CAVITY>
0

>  <SCORE.RESTR.norm>
0

>  <SCORE.SYSTEM>
0

>  <SCORE.SYSTEM.CONST>
0

>  <SCORE.SYSTEM.DIHEDRAL>
0

>  <SCORE.SYSTEM.SOLV>
0

>  <SCORE.SYSTEM.norm>
0

>  <SCORE.heavy>
22

>  <SCORE.norm>
-0.352542

>  <RMSD>
33.537

$$$$
lig.pdb
 OpenBabel11021811523D
libRbt.so/2013.1/901 2013/11/27
 22 23  0  0  0  0  0  0  0  0999 V2000
    8.4153  -19.6219   -3.5752 C   0  0  1  0  0  0  0  0  0  0  0  0
    9.5557  -17.4707   -4.1411 C   0  0  1  0  0  0  0  0  0  0  0  0
    8.3792  -16.3502   -3.9182 C   0  0  1  0  0  0  0  0  0  0  0  0
    8.7534  -15.0687   -4.8196 C   0  0  2  0  0  0  0  0  0  0  0  0
    8.2509  -20.7601   -2.4700 C   0  0  1  0  0  0  0  0  0  0  0  0
    9.5044  -21.7194   -2.4724 C   0  0  2  0  0  0  0  0  0  0  0  0
    9.5949  -22.4299   -3.9108 C   0  0  1  0  0  0  0  0  0  0  0  0
    9.8346  -21.3207   -5.0671 C   0  0  1  0  0  0  0  0  0  0  0  0
    9.9463  -21.9203   -6.4963 C   0  0  0  0  0  0  0  0  0  0  0  0
   10.1435  -14.4787   -4.2704 C   0  0  1  0  0  0  0  0  0  0  0  0
   11.2698  -15.6105   -4.4916 C   0  0  0  0  0  0  0  0  0  0  0  0
   10.9194  -16.9182   -3.6616 C   0  0  2  0  0  0  0  0  0  0  0  0
   10.7276  -23.3587   -3.9885 F   0  0  0  0  0  0  0  0  0  0  0  0
    8.0640  -20.0198   -1.1371 N   0  0  0  0  0  0  0  0  0  0  0  0
   11.0432  -22.7988   -6.6788 N   0  0  0  0  0  0  0  0  0  0  0  0
   10.5589  -13.2874   -5.0764 N   0  0  0  0  0  0  0  0  0  0  0  0
   11.9239  -17.9577   -3.8660 N   0  0  0  0  0  0  0  0  0  0  0  0
    9.3459  -18.6342   -3.3732 O   0  0  0  0  0  0  0  0  0  0  0  0
    7.0887  -16.9285   -4.4046 O   0  0  0  0  0  0  0  0  0  0  0  0
    7.7631  -14.1143   -4.6351 O   0  0  0  0  0  0  0  0  0  0  0  0
    9.3274  -22.5388   -1.6462 O   0  0  0  0  0  0  0  0  0  0  0  0
    8.6430  -20.2969   -4.9660 O   0  0  0  0  0  0  0  0  0  0  0  0
  1  5  1  0  0  0  0
  1 18  1  1  0  0  0
  2 18  1  1  0  0  0
  2  3  1  0  0  0  0
  2 12  1  0  0  0  0
  3 19  1  6  0  0  0
  3  4  1  0  0  0  0
  4 20  1  1  0  0  0
  4 10  1  0  0  0  0
  5  6  1  0  0  0  0
  5 14  1  1  0  0  0
  6 21  1  1  0  0  0
  7 13  1  1  0  0  0
  7  6  1  0  0  0  0
  8  9  1  6  0  0  0
  8  7  1  0  0  0  0
 10 16  1  6  0  0  0
 11 10  1  0  0  0  0
 12 17  1  6  0  0  0
 12 11  1  0  0  0  0
 15  9  1  0  0  0  0
 22  8  1  0  0  0  0
 22  1  1  0  0  0  0
M  END
>  <CHROM.1>
-172.74298177,73.21740840,-62.52577769,9.49334716,-18.86923323,-4.04682344
1.49234889,-0.85174737,3.01042246

>  <Name>
lig.pdb

>  <RI>
0

>  <Rbt.Current_Directory>
/home/itssahil/PROJECTS/Mol_Feturizer/New_Systems/rnas/5bxk

>  <Rbt.Executable>
rbdock ($Id: //depot/dev/client3/rdock/2013.1/src/exe/rbdock.cxx#4 $)

>  <Rbt.Library>
libRbt.so (2013.1, Build901 2013/11/27)

>  <Rbt.Parameter_File>
/export/apps/rDock/src/rDock_2013.1_src/data/scripts/dock_solv.prm

>  <Rbt.Receptor>
prm/blind_docking_80.prm

>  <SCORE>
-6.03842

>  <SCORE.INTER>
-2.77907

>  <SCORE.INTER.CONST>
1

>  <SCORE.INTER.POLAR>
0

>  <SCORE.INTER.ROT>
3

>  <SCORE.INTER.SOLV>
18.7509

>  <SCORE.INTER.VDW>
-13.703

>  <SCORE.INTER.norm>
-0.126321

>  <SCORE.INTRA>
-3.25936

>  <SCORE.INTRA.DIHEDRAL>
-5.94707

>  <SCORE.INTRA.DIHEDRAL.0>
7.18044

>  <SCORE.INTRA.POLAR>
0

>  <SCORE.INTRA.POLAR.0>
0

>  <SCORE.INTRA.REPUL>
0

>  <SCORE.INTRA.REPUL.0>
0

>  <SCORE.INTRA.SOLV>
-0.589672

>  <SCORE.INTRA.SOLV.lig_0>
-72.0615

>  <SCORE.INTRA.VDW>
0.00901668

>  <SCORE.INTRA.VDW.0>
-1.54792

>  <SCORE.INTRA.norm>
-0.148153

>  <SCORE.RESTR>
0

>  <SCORE.RESTR.CAVITY>
0

>  <SCORE.RESTR.norm>
0

>  <SCORE.SYSTEM>
0

>  <SCORE.SYSTEM.CONST>
0

>  <SCORE.SYSTEM.DIHEDRAL>
0

>  <SCORE.SYSTEM.SOLV>
0

>  <SCORE.SYSTEM.norm>
0

>  <SCORE.heavy>
22

>  <SCORE.norm>
-0.274474

>  <RMSD>
33.538

$$$$
lig.pdb
 OpenBabel11021811523D
libRbt.so/2013.1/901 2013/11/27
 22 23  0  0  0  0  0  0  0  0999 V2000
    8.2248  -19.5419   -3.6644 C   0  0  1  0  0  0  0  0  0  0  0  0
    9.5771  -17.4847   -4.0976 C   0  0  1  0  0  0  0  0  0  0  0  0
    8.4685  -16.2875   -3.9332 C   0  0  1  0  0  0  0  0  0  0  0  0
    9.0017  -15.0157   -4.7658 C   0  0  2  0  0  0  0  0  0  0  0  0
    7.9498  -20.7351   -2.6423 C   0  0  1  0  0  0  0  0  0  0  0  0
    9.1235  -21.7892   -2.6928 C   0  0  2  0  0  0  0  0  0  0  0  0
    9.1857  -22.4063   -4.1752 C   0  0  1  0  0  0  0  0  0  0  0  0
    9.5345  -21.2446   -5.2492 C   0  0  1  0  0  0  0  0  0  0  0  0
    9.6264  -21.7537   -6.7144 C   0  0  0  0  0  0  0  0  0  0  0  0
   10.3823  -14.5410   -4.0947 C   0  0  1  0  0  0  0  0  0  0  0  0
   11.4401  -15.7458   -4.2616 C   0  0  0  0  0  0  0  0  0  0  0  0
   10.9344  -17.0438   -3.4991 C   0  0  2  0  0  0  0  0  0  0  0  0
   10.2429  -23.4154   -4.3005 F   0  0  0  0  0  0  0  0  0  0  0  0
    7.7959  -20.0736   -1.2645 N   0  0  0  0  0  0  0  0  0  0  0  0
   10.7312  -22.6032   -6.9711 N   0  0  0  0  0  0  0  0  0  0  0  0
   10.9426  -13.3644   -4.8317 N   0  0  0  0  0  0  0  0  0  0  0  0
   11.8762  -18.1482   -3.6558 N   0  0  0  0  0  0  0  0  0  0  0  0
    9.2263  -18.6476   -3.3821 O   0  0  0  0  0  0  0  0  0  0  0  0
    7.1828  -16.7593   -4.5337 O   0  0  0  0  0  0  0  0  0  0  0  0
    8.0696  -13.9967   -4.6303 O   0  0  0  0  0  0  0  0  0  0  0  0
    8.8664  -22.6456   -1.9274 O   0  0  0  0  0  0  0  0  0  0  0  0
    8.4256  -20.1379   -5.0949 O   0  0  0  0  0  0  0  0  0  0  0  0
  1  5  1  0  0  0  0
  1 18  1  1  0  0  0
  2 18  1  1  0  0  0
  2  3  1  0  0  0  0
  2 12  1  0  0  0  0
  3 19  1  6  0  0  0
  3  4  1  0  0  0  0
  4 20  1  1  0  0  0
  4 10  1  0  0  0  0
  5  6  1  0  0  0  0
  5 14  1  1  0  0  0
  6 21  1  1  0  0  0
  7 13  1  1  0  0  0
  7  6  1  0  0  0  0
  8  9  1  6  0  0  0
  8  7  1  0  0  0  0
 10 16  1  6  0  0  0
 11 10  1  0  0  0  0
 12 17  1  6  0  0  0
 12 11  1  0  0  0  0
 15  9  1  0  0  0  0
 22  8  1  0  0  0  0
 22  1  1  0  0  0  0
M  END
>  <CHROM.1>
-175.62274702,71.38234794,-68.27899492,9.38577681,-18.85822970,-4.11249148
1.62664465,-0.86413166,-3.12745127

>  <Name>
lig.pdb

>  <RI>
0

>  <Rbt.Current_Directory>
/home/itssahil/PROJECTS/Mol_Feturizer/New_Systems/rnas/5bxk

>  <Rbt.Executable>
rbdock ($Id: //depot/dev/client3/rdock/2013.1/src/exe/rbdock.cxx#4 $)

>  <Rbt.Library>
libRbt.so (2013.1, Build901 2013/11/27)

>  <Rbt.Parameter_File>
/export/apps/rDock/src/rDock_2013.1_src/data/scripts/dock_solv.prm

>  <Rbt.Receptor>
prm/blind_docking_100.prm

>  <SCORE>
-6.19869

>  <SCORE.INTER>
-2.80226

>  <SCORE.INTER.CONST>
1

>  <SCORE.INTER.POLAR>
0

>  <SCORE.INTER.ROT>
3

>  <SCORE.INTER.SOLV>
19.1749

>  <SCORE.INTER.VDW>
-13.8598

>  <SCORE.INTER.norm>
-0.127375

>  <SCORE.INTRA>
-3.39643

>  <SCORE.INTRA.DIHEDRAL>
-6.09133

>  <SCORE.INTRA.DIHEDRAL.0>
7.18044

>  <SCORE.INTRA.POLAR>
0

>  <SCORE.INTRA.POLAR.0>
0

>  <SCORE.INTRA.REPUL>
0

>  <SCORE.INTRA.REPUL.0>
0

>  <SCORE.INTRA.SOLV>
-0.741609

>  <SCORE.INTRA.SOLV.lig_0>
-72.0615

>  <SCORE.INTRA.VDW>
0.0200365

>  <SCORE.INTRA.VDW.0>
-1.54792

>  <SCORE.INTRA.norm>
-0.154383

>  <SCORE.RESTR>
0

>  <SCORE.RESTR.CAVITY>
0

>  <SCORE.RESTR.norm>
0

>  <SCORE.SYSTEM>
0

>  <SCORE.SYSTEM.CONST>
0

>  <SCORE.SYSTEM.DIHEDRAL>
0

>  <SCORE.SYSTEM.SOLV>
0

>  <SCORE.SYSTEM.norm>
0

>  <SCORE.heavy>
22

>  <SCORE.norm>
-0.281759

>  <RMSD>
33.594

$$$$
lig.pdb
 OpenBabel11021811523D
libRbt.so/2013.1/901 2013/11/27
 22 23  0  0  0  0  0  0  0  0999 V2000
   10.4347  -18.2833   -4.2689 C   0  0  1  0  0  0  0  0  0  0  0  0
    8.0707  -17.8482   -3.5827 C   0  0  1  0  0  0  0  0  0  0  0  0
    7.8861  -16.3376   -4.1935 C   0  0  1  0  0  0  0  0  0  0  0  0
    6.3117  -16.1047   -4.4427 C   0  0  2  0  0  0  0  0  0  0  0  0
   11.8944  -18.6774   -3.7612 C   0  0  1  0  0  0  0  0  0  0  0  0
   12.5401  -17.4855   -2.9527 C   0  0  2  0  0  0  0  0  0  0  0  0
   12.6782  -16.2228   -3.9370 C   0  0  1  0  0  0  0  0  0  0  0  0
   11.2133  -15.7348   -4.4276 C   0  0  1  0  0  0  0  0  0  0  0  0
   11.2487  -14.5063   -5.3784 C   0  0  0  0  0  0  0  0  0  0  0  0
    5.8319  -17.1724   -5.5436 C   0  0  1  0  0  0  0  0  0  0  0  0
    6.0420  -18.6419   -4.9152 C   0  0  0  0  0  0  0  0  0  0  0  0
    7.5770  -18.9024   -4.6024 C   0  0  2  0  0  0  0  0  0  0  0  0
   13.2925  -15.0732   -3.2642 F   0  0  0  0  0  0  0  0  0  0  0  0
   11.7106  -19.9465   -2.9154 N   0  0  0  0  0  0  0  0  0  0  0  0
   11.7703  -13.3265   -4.7918 N   0  0  0  0  0  0  0  0  0  0  0  0
    4.3673  -17.0198   -5.8142 N   0  0  0  0  0  0  0  0  0  0  0  0
    7.7791  -20.2246   -4.0174 N   0  0  0  0  0  0  0  0  0  0  0  0
    9.4220  -18.1750   -3.3495 O   0  0  0  0  0  0  0  0  0  0  0  0
    8.3674  -15.3602   -3.1692 O   0  0  0  0  0  0  0  0  0  0  0  0
    6.1468  -14.8284   -4.9618 O   0  0  0  0  0  0  0  0  0  0  0  0
   13.6126  -17.8277   -2.6092 O   0  0  0  0  0  0  0  0  0  0  0  0
   10.5308  -16.9745   -5.1173 O   0  0  0  0  0  0  0  0  0  0  0  0
  1  5  1  0  0  0  0
  1 18  1  1  0  0  0
  2 18  1  6  0  0  0
  2  3  1  0  0  0  0
  2 12  1  0  0  0  0
  3 19  1  1  0  0  0
  3  4  1  0  0  0  0
  4 20  1  6  0  0  0
  4 10  1  0  0  0  0
  5  6  1  0  0  0  0
  5 14  1  1  0  0  0
  6 21  1  6  0  0  0
  7 13  1  1  0  0  0
  7  6  1  0  0  0  0
  8  9  1  6  0  0  0
  8  7  1  0  0  0  0
 10 16  1  1  0  0  0
 11 10  1  0  0  0  0
 12 17  1  1  0  0  0
 12 11  1  0  0  0  0
 15  9  1  0  0  0  0
 22  8  1  0  0  0  0
 22  1  1  0  0  0  0
M  END
>  <CHROM.1>
-179.63333043,-63.12016611,-63.34056969,9.55362359,-16.97897379,-4.15753401
-0.05928935,0.21721775,2.93845095

>  <Name>
lig.pdb

>  <RI>
0

>  <Rbt.Current_Directory>
/home/itssahil/PROJECTS/Mol_Feturizer/New_Systems/rnas/5bxk

>  <Rbt.Executable>
rbdock ($Id: //depot/dev/client3/rdock/2013.1/src/exe/rbdock.cxx#4 $)

>  <Rbt.Library>
libRbt.so (2013.1, Build901 2013/11/27)

>  <Rbt.Parameter_File>
/export/apps/rDock/src/rDock_2013.1_src/data/scripts/dock_solv.prm

>  <Rbt.Receptor>
prm/blind_docking_80.prm

>  <SCORE>
-8.70339

>  <SCORE.INTER>
-5.54042

>  <SCORE.INTER.CONST>
1

>  <SCORE.INTER.POLAR>
0

>  <SCORE.INTER.ROT>
3

>  <SCORE.INTER.SOLV>
12.9867

>  <SCORE.INTER.VDW>
-13.6225

>  <SCORE.INTER.norm>
-0.251837

>  <SCORE.INTRA>
-3.16297

>  <SCORE.INTRA.DIHEDRAL>
-6.95687

>  <SCORE.INTRA.DIHEDRAL.0>
7.18044

>  <SCORE.INTRA.POLAR>
0

>  <SCORE.INTRA.POLAR.0>
0

>  <SCORE.INTRA.REPUL>
0

>  <SCORE.INTRA.REPUL.0>
0

>  <SCORE.INTRA.SOLV>
0.511731

>  <SCORE.INTRA.SOLV.lig_0>
-72.0615

>  <SCORE.INTRA.VDW>
0.0596013

>  <SCORE.INTRA.VDW.0>
-1.54792

>  <SCORE.INTRA.norm>
-0.143771

>  <SCORE.RESTR>
0

>  <SCORE.RESTR.CAVITY>
0

>  <SCORE.RESTR.norm>
0

>  <SCORE.SYSTEM>
0

>  <SCORE.SYSTEM.CONST>
0

>  <SCORE.SYSTEM.DIHEDRAL>
0

>  <SCORE.SYSTEM.SOLV>
0

>  <SCORE.SYSTEM.norm>
0

>  <SCORE.heavy>
22

>  <SCORE.norm>
-0.395608

>  <RMSD>
33.598

$$$$
lig.pdb
 OpenBabel11021811523D
libRbt.so/2013.1/901 2013/11/27
 22 23  0  0  0  0  0  0  0  0999 V2000
    8.6891  -20.6365   -2.1585 C   0  0  1  0  0  0  0  0  0  0  0  0
    7.6027  -18.9393   -3.6376 C   0  0  1  0  0  0  0  0  0  0  0  0
    6.1711  -19.7171   -3.8244 C   0  0  1  0  0  0  0  0  0  0  0  0
    5.4649  -19.1221   -5.1443 C   0  0  2  0  0  0  0  0  0  0  0  0
    9.5105  -20.8645   -0.8104 C   0  0  1  0  0  0  0  0  0  0  0  0
   10.9718  -20.2836   -0.9473 C   0  0  2  0  0  0  0  0  0  0  0  0
   11.7218  -21.0741   -2.1284 C   0  0  1  0  0  0  0  0  0  0  0  0
   10.9670  -20.8176   -3.5388 C   0  0  1  0  0  0  0  0  0  0  0  0
   11.6319  -21.5375   -4.7446 C   0  0  0  0  0  0  0  0  0  0  0  0
    5.1786  -17.5631   -4.8802 C   0  0  1  0  0  0  0  0  0  0  0  0
    6.6042  -16.8360   -4.6866 C   0  0  0  0  0  0  0  0  0  0  0  0
    7.3657  -17.4250   -3.4237 C   0  0  2  0  0  0  0  0  0  0  0  0
   13.1003  -20.6057   -2.3066 F   0  0  0  0  0  0  0  0  0  0  0  0
    8.6928  -20.1784    0.2943 N   0  0  0  0  0  0  0  0  0  0  0  0
   12.9616  -21.1265   -5.0115 N   0  0  0  0  0  0  0  0  0  0  0  0
    4.5318  -16.9416   -6.0788 N   0  0  0  0  0  0  0  0  0  0  0  0
    8.6662  -16.7859   -3.2465 N   0  0  0  0  0  0  0  0  0  0  0  0
    8.3014  -19.3624   -2.4886 O   0  0  0  0  0  0  0  0  0  0  0  0
    6.4559  -21.1698   -4.0364 O   0  0  0  0  0  0  0  0  0  0  0  0
    4.2511  -19.7741   -5.3086 O   0  0  0  0  0  0  0  0  0  0  0  0
   11.5313  -20.4837    0.0687 O   0  0  0  0  0  0  0  0  0  0  0  0
    9.4753  -21.2820   -3.3448 O   0  0  0  0  0  0  0  0  0  0  0  0
  1  5  1  0  0  0  0
  1 18  1  6  0  0  0
  2 18  1  1  0  0  0
  2  3  1  0  0  0  0
  2 12  1  0  0  0  0
  3 19  1  6  0  0  0
  3  4  1  0  0  0  0
  4 20  1  1  0  0  0
  4 10  1  0  0  0  0
  5  6  1  0  0  0  0
  5 14  1  1  0  0  0
  6 21  1  1  0  0  0
  7 13  1  6  0  0  0
  7  6  1  0  0  0  0
  8  9  1  6  0  0  0
  8  7  1  0  0  0  0
 10 16  1  6  0  0  0
 11 10  1  0  0  0  0
 12 17  1  6  0  0  0
 12 11  1  0  0  0  0
 15  9  1  0  0  0  0
 22  8  1  0  0  0  0
 22  1  1  0  0  0  0
M  END
>  <CHROM.1>
178.39147346,56.51724113,-61.80243409,8.68913478,-19.69978254,-3.22902948
0.36577565,-0.41259344,1.51523638

>  <Name>
lig.pdb

>  <RI>
0

>  <Rbt.Current_Directory>
/home/itssahil/PROJECTS/Mol_Feturizer/New_Systems/rnas/5bxk

>  <Rbt.Executable>
rbdock ($Id: //depot/dev/client3/rdock/2013.1/src/exe/rbdock.cxx#4 $)

>  <Rbt.Library>
libRbt.so (2013.1, Build901 2013/11/27)

>  <Rbt.Parameter_File>
/export/apps/rDock/src/rDock_2013.1_src/data/scripts/dock_solv.prm

>  <Rbt.Receptor>
prm/blind_docking_40.prm

>  <SCORE>
-5.65381

>  <SCORE.INTER>
-1.87817

>  <SCORE.INTER.CONST>
1

>  <SCORE.INTER.POLAR>
0

>  <SCORE.INTER.ROT>
3

>  <SCORE.INTER.SOLV>
17.7052

>  <SCORE.INTER.VDW>
-12.7538

>  <SCORE.INTER.norm>
-0.0853715

>  <SCORE.INTRA>
-3.77564

>  <SCORE.INTRA.DIHEDRAL>
-6.96167

>  <SCORE.INTRA.DIHEDRAL.0>
7.18044

>  <SCORE.INTRA.POLAR>
0

>  <SCORE.INTRA.POLAR.0>
0

>  <SCORE.INTRA.REPUL>
0

>  <SCORE.INTRA.REPUL.0>
0

>  <SCORE.INTRA.SOLV>
-0.903035

>  <SCORE.INTRA.SOLV.lig_0>
-72.0615

>  <SCORE.INTRA.VDW>
0.156713

>  <SCORE.INTRA.VDW.0>
-1.54792

>  <SCORE.INTRA.norm>
-0.17162

>  <SCORE.RESTR>
0

>  <SCORE.RESTR.CAVITY>
0

>  <SCORE.RESTR.norm>
0

>  <SCORE.SYSTEM>
0

>  <SCORE.SYSTEM.CONST>
0

>  <SCORE.SYSTEM.DIHEDRAL>
0

>  <SCORE.SYSTEM.SOLV>
0

>  <SCORE.SYSTEM.norm>
0

>  <SCORE.heavy>
22

>  <SCORE.norm>
-0.256992

>  <RMSD>
33.638

$$$$
lig.pdb
 OpenBabel11021811523D
libRbt.so/2013.1/901 2013/11/27
 22 23  0  0  0  0  0  0  0  0999 V2000
    7.1267  -18.5415   -2.7969 C   0  0  1  0  0  0  0  0  0  0  0  0
    9.0507  -17.1810   -3.6308 C   0  0  1  0  0  0  0  0  0  0  0  0
   10.3868  -17.4259   -4.5495 C   0  0  1  0  0  0  0  0  0  0  0  0
   11.2770  -16.0852   -4.4774 C   0  0  2  0  0  0  0  0  0  0  0  0
    7.1553  -19.8690   -1.9130 C   0  0  1  0  0  0  0  0  0  0  0  0
    6.9418  -21.1429   -2.8202 C   0  0  2  0  0  0  0  0  0  0  0  0
    5.4952  -21.0349   -3.5116 C   0  0  1  0  0  0  0  0  0  0  0  0
    5.4352  -19.7377   -4.4804 C   0  0  1  0  0  0  0  0  0  0  0  0
    4.0713  -19.5586   -5.2030 C   0  0  0  0  0  0  0  0  0  0  0  0
   10.4132  -14.8944   -5.1238 C   0  0  1  0  0  0  0  0  0  0  0  0
    9.1041  -14.6933   -4.2051 C   0  0  0  0  0  0  0  0  0  0  0  0
    8.2157  -16.0096   -4.2013 C   0  0  2  0  0  0  0  0  0  0  0  0
    5.2094  -22.1971   -4.3596 F   0  0  0  0  0  0  0  0  0  0  0  0
    8.5150  -19.8619   -1.1983 N   0  0  0  0  0  0  0  0  0  0  0  0
    2.9623  -19.4127   -4.3330 N   0  0  0  0  0  0  0  0  0  0  0  0
   11.1800  -13.6093   -5.0767 N   0  0  0  0  0  0  0  0  0  0  0  0
    7.0343  -15.8462   -3.3595 N   0  0  0  0  0  0  0  0  0  0  0  0
    8.1774  -18.2875   -3.6419 O   0  0  0  0  0  0  0  0  0  0  0  0
   11.1604  -18.5576   -3.9520 O   0  0  0  0  0  0  0  0  0  0  0  0
   12.4095  -16.2836   -5.2544 O   0  0  0  0  0  0  0  0  0  0  0  0
    6.9660  -22.0878   -2.1187 O   0  0  0  0  0  0  0  0  0  0  0  0
    5.7790  -18.4886   -3.5860 O   0  0  0  0  0  0  0  0  0  0  0  0
  1  5  1  0  0  0  0
  1 18  1  6  0  0  0
  2 18  1  6  0  0  0
  2  3  1  0  0  0  0
  2 12  1  0  0  0  0
  3 19  1  1  0  0  0
  3  4  1  0  0  0  0
  4 20  1  6  0  0  0
  4 10  1  0  0  0  0
  5  6  1  0  0  0  0
  5 14  1  6  0  0  0
  6 21  1  1  0  0  0
  7 13  1  6  0  0  0
  7  6  1  0  0  0  0
  8  9  1  1  0  0  0
  8  7  1  0  0  0  0
 10 16  1  1  0  0  0
 11 10  1  0  0  0  0
 12 17  1  1  0  0  0
 12 11  1  0  0  0  0
 15  9  1  0  0  0  0
 22  8  1  0  0  0  0
 22  1  1  0  0  0  0
M  END
>  <CHROM.1>
-119.62744323,165.65461361,59.56331511,7.89275992,-18.29916702,-3.81638585
2.38156863,0.15417090,2.77857651

>  <Name>
lig.pdb

>  <RI>
0

>  <Rbt.Current_Directory>
/home/itssahil/PROJECTS/Mol_Feturizer/New_Systems/rnas/5bxk

>  <Rbt.Executable>
rbdock ($Id: //depot/dev/client3/rdock/2013.1/src/exe/rbdock.cxx#4 $)

>  <Rbt.Library>
libRbt.so (2013.1, Build901 2013/11/27)

>  <Rbt.Parameter_File>
/export/apps/rDock/src/rDock_2013.1_src/data/scripts/dock_solv.prm

>  <Rbt.Receptor>
prm/blind_docking_100.prm

>  <SCORE>
-2.00839

>  <SCORE.INTER>
-3.71641

>  <SCORE.INTER.CONST>
1

>  <SCORE.INTER.POLAR>
0

>  <SCORE.INTER.ROT>
3

>  <SCORE.INTER.SOLV>
17.2985

>  <SCORE.INTER.VDW>
-13.8438

>  <SCORE.INTER.norm>
-0.168928

>  <SCORE.INTRA>
1.70803

>  <SCORE.INTRA.DIHEDRAL>
0.854814

>  <SCORE.INTRA.DIHEDRAL.0>
7.18044

>  <SCORE.INTRA.POLAR>
0

>  <SCORE.INTRA.POLAR.0>
0

>  <SCORE.INTRA.REPUL>
0

>  <SCORE.INTRA.REPUL.0>
0

>  <SCORE.INTRA.SOLV>
1.48589

>  <SCORE.INTRA.SOLV.lig_0>
-72.0615

>  <SCORE.INTRA.VDW>
0.537675

>  <SCORE.INTRA.VDW.0>
-1.54792

>  <SCORE.INTRA.norm>
0.0776375

>  <SCORE.RESTR>
0

>  <SCORE.RESTR.CAVITY>
0

>  <SCORE.RESTR.norm>
0

>  <SCORE.SYSTEM>
0

>  <SCORE.SYSTEM.CONST>
0

>  <SCORE.SYSTEM.DIHEDRAL>
0

>  <SCORE.SYSTEM.SOLV>
0

>  <SCORE.SYSTEM.norm>
0

>  <SCORE.heavy>
22

>  <SCORE.norm>
-0.0912903

>  <RMSD>
33.657

$$$$
lig.pdb
 OpenBabel11021811523D
libRbt.so/2013.1/901 2013/11/27
 22 23  0  0  0  0  0  0  0  0999 V2000
   10.4350  -18.0078   -4.2805 C   0  0  1  0  0  0  0  0  0  0  0  0
    8.0180  -17.8460   -3.6638 C   0  0  1  0  0  0  0  0  0  0  0  0
    7.7202  -16.3477   -4.2600 C   0  0  1  0  0  0  0  0  0  0  0  0
    6.1387  -16.2466   -4.5493 C   0  0  2  0  0  0  0  0  0  0  0  0
   11.9073  -18.3015   -3.7417 C   0  0  1  0  0  0  0  0  0  0  0  0
   12.4092  -17.1164   -2.8280 C   0  0  2  0  0  0  0  0  0  0  0  0
   12.4608  -15.7789   -3.7172 C   0  0  1  0  0  0  0  0  0  0  0  0
   10.9740  -15.3937   -4.2326 C   0  0  1  0  0  0  0  0  0  0  0  0
   10.9255  -14.1019   -5.0949 C   0  0  0  0  0  0  0  0  0  0  0  0
    5.7815  -17.3348   -5.6765 C   0  0  1  0  0  0  0  0  0  0  0  0
    6.1005  -18.7902   -5.0614 C   0  0  0  0  0  0  0  0  0  0  0  0
    7.6435  -18.9231   -4.7100 C   0  0  2  0  0  0  0  0  0  0  0  0
   12.9402  -14.6290   -2.9429 F   0  0  0  0  0  0  0  0  0  0  0  0
   11.8155  -19.6396   -2.9929 N   0  0  0  0  0  0  0  0  0  0  0  0
   11.7109  -14.1545   -6.2732 N   0  0  0  0  0  0  0  0  0  0  0  0
    4.3168  -17.3039   -5.9851 N   0  0  0  0  0  0  0  0  0  0  0  0
    7.9432  -20.2318   -4.1367 N   0  0  0  0  0  0  0  0  0  0  0  0
    9.3858  -18.0595   -3.3978 O   0  0  0  0  0  0  0  0  0  0  0  0
    8.0888  -15.3483   -3.2105 O   0  0  0  0  0  0  0  0  0  0  0  0
    5.8784  -14.9815   -5.0563 O   0  0  0  0  0  0  0  0  0  0  0  0
   13.4969  -17.3824   -2.4652 O   0  0  0  0  0  0  0  0  0  0  0  0
   10.4359  -16.6381   -5.0327 O   0  0  0  0  0  0  0  0  0  0  0  0
  1  5  1  0  0  0  0
  1 18  1  1  0  0  0
  2 18  1  6  0  0  0
  2  3  1  0  0  0  0
  2 12  1  0  0  0  0
  3 19  1  1  0  0  0
  3  4  1  0  0  0  0
  4 20  1  6  0  0  0
  4 10  1  0  0  0  0
  5  6  1  0  0  0  0
  5 14  1  1  0  0  0
  6 21  1  6  0  0  0
  7 13  1  1  0  0  0
  7  6  1  0  0  0  0
  8  9  1  6  0  0  0
  8  7  1  0  0  0  0
 10 16  1  1  0  0  0
 11 10  1  0  0  0  0
 12 17  1  1  0  0  0
 12 11  1  0  0  0  0
 15  9  1  0  0  0  0
 22  8  1  0  0  0  0
 22  1  1  0  0  0  0
M  END
>  <CHROM.1>
-179.44378756,-59.92527343,59.78162782,9.44750183,-16.87707560,-4.21011979
-0.10230230,0.26105898,2.90365435

>  <Name>
lig.pdb

>  <RI>
0

>  <Rbt.Current_Directory>
/home/itssahil/PROJECTS/Mol_Feturizer/New_Systems/rnas/5bxk

>  <Rbt.Executable>
rbdock ($Id: //depot/dev/client3/rdock/2013.1/src/exe/rbdock.cxx#4 $)

>  <Rbt.Library>
libRbt.so (2013.1, Build901 2013/11/27)

>  <Rbt.Parameter_File>
/export/apps/rDock/src/rDock_2013.1_src/data/scripts/dock_solv.prm

>  <Rbt.Receptor>
prm/blind_docking_40.prm

>  <SCORE>
-8.48434

>  <SCORE.INTER>
-5.2824

>  <SCORE.INTER.CONST>
1

>  <SCORE.INTER.POLAR>
0

>  <SCORE.INTER.ROT>
3

>  <SCORE.INTER.SOLV>
16.4712

>  <SCORE.INTER.VDW>
-14.612

>  <SCORE.INTER.norm>
-0.240109

>  <SCORE.INTRA>
-3.20194

>  <SCORE.INTRA.DIHEDRAL>
-7.0434

>  <SCORE.INTRA.DIHEDRAL.0>
7.18044

>  <SCORE.INTRA.POLAR>
0

>  <SCORE.INTRA.POLAR.0>
0

>  <SCORE.INTRA.REPUL>
0

>  <SCORE.INTRA.REPUL.0>
0

>  <SCORE.INTRA.SOLV>
0.658155

>  <SCORE.INTRA.SOLV.lig_0>
-72.0615

>  <SCORE.INTRA.VDW>
-0.00931544

>  <SCORE.INTRA.VDW.0>
-1.54792

>  <SCORE.INTRA.norm>
-0.145543

>  <SCORE.RESTR>
0

>  <SCORE.RESTR.CAVITY>
0

>  <SCORE.RESTR.norm>
0

>  <SCORE.SYSTEM>
0

>  <SCORE.SYSTEM.CONST>
0

>  <SCORE.SYSTEM.DIHEDRAL>
0

>  <SCORE.SYSTEM.SOLV>
0

>  <SCORE.SYSTEM.norm>
0

>  <SCORE.heavy>
22

>  <SCORE.norm>
-0.385652

>  <RMSD>
33.658

$$$$
lig.pdb
 OpenBabel11021811523D
libRbt.so/2013.1/901 2013/11/27
 22 23  0  0  0  0  0  0  0  0999 V2000
   10.4330  -17.9474   -4.2959 C   0  0  1  0  0  0  0  0  0  0  0  0
    8.0108  -17.8205   -3.6913 C   0  0  1  0  0  0  0  0  0  0  0  0
    7.6884  -16.3405   -4.3197 C   0  0  1  0  0  0  0  0  0  0  0  0
    6.1064  -16.2741   -4.6162 C   0  0  2  0  0  0  0  0  0  0  0  0
   11.9036  -18.2450   -3.7547 C   0  0  1  0  0  0  0  0  0  0  0  0
   12.4036  -17.0654   -2.8327 C   0  0  2  0  0  0  0  0  0  0  0  0
   12.4584  -15.7228   -3.7141 C   0  0  1  0  0  0  0  0  0  0  0  0
   10.9732  -15.3339   -4.2315 C   0  0  1  0  0  0  0  0  0  0  0  0
   10.9278  -14.0372   -5.0865 C   0  0  0  0  0  0  0  0  0  0  0  0
    5.7729  -17.3916   -5.7216 C   0  0  1  0  0  0  0  0  0  0  0  0
    6.1158  -18.8280   -5.0753 C   0  0  0  0  0  0  0  0  0  0  0  0
    7.6597  -18.9256   -4.7161 C   0  0  2  0  0  0  0  0  0  0  0  0
   12.9362  -14.5777   -2.9319 F   0  0  0  0  0  0  0  0  0  0  0  0
   11.8090  -19.5873   -3.0138 N   0  0  0  0  0  0  0  0  0  0  0  0
   11.6475  -14.1135   -6.3048 N   0  0  0  0  0  0  0  0  0  0  0  0
    4.3091  -17.3937   -6.0356 N   0  0  0  0  0  0  0  0  0  0  0  0
    7.9807  -20.2165   -4.1147 N   0  0  0  0  0  0  0  0  0  0  0  0
    9.3813  -18.0036   -3.4165 O   0  0  0  0  0  0  0  0  0  0  0  0
    8.0351  -15.3130   -3.2899 O   0  0  0  0  0  0  0  0  0  0  0  0
    5.8252  -15.0246   -5.1503 O   0  0  0  0  0  0  0  0  0  0  0  0
   13.4901  -17.3340   -2.4685 O   0  0  0  0  0  0  0  0  0  0  0  0
   10.4367  -16.5735   -5.0403 O   0  0  0  0  0  0  0  0  0  0  0  0
  1  5  1  0  0  0  0
  1 18  1  1  0  0  0
  2 18  1  6  0  0  0
  2  3  1  0  0  0  0
  2 12  1  0  0  0  0
  3 19  1  1  0  0  0
  3  4  1  0  0  0  0
  4 20  1  6  0  0  0
  4 10  1  0  0  0  0
  5  6  1  0  0  0  0
  5 14  1  1  0  0  0
  6 21  1  6  0  0  0
  7 13  1  1  0  0  0
  7  6  1  0  0  0  0
  8  9  1  6  0  0  0
  8  7  1  0  0  0  0
 10 16  1  1  0  0  0
 11 10  1  0  0  0  0
 12 17  1  1  0  0  0
 12 11  1  0  0  0  0
 15  9  1  0  0  0  0
 22  8  1  0  0  0  0
 22  1  1  0  0  0  0
M  END
>  <CHROM.1>
-177.72472740,-59.71391613,63.61030912,9.43699685,-16.85414031,-4.23340917
-0.11355729,0.27058608,2.89977958

>  <Name>
lig.pdb

>  <RI>
0

>  <Rbt.Current_Directory>
/home/itssahil/PROJECTS/Mol_Feturizer/New_Systems/rnas/5bxk

>  <Rbt.Executable>
rbdock ($Id: //depot/dev/client3/rdock/2013.1/src/exe/rbdock.cxx#4 $)

>  <Rbt.Library>
libRbt.so (2013.1, Build901 2013/11/27)

>  <Rbt.Parameter_File>
/export/apps/rDock/src/rDock_2013.1_src/data/scripts/dock_solv.prm

>  <Rbt.Receptor>
prm/blind_docking_80.prm

>  <SCORE>
-8.48126

>  <SCORE.INTER>
-5.32562

>  <SCORE.INTER.CONST>
1

>  <SCORE.INTER.POLAR>
0

>  <SCORE.INTER.ROT>
3

>  <SCORE.INTER.SOLV>
16.5594

>  <SCORE.INTER.VDW>
-14.6702

>  <SCORE.INTER.norm>
-0.242074

>  <SCORE.INTRA>
-3.15564

>  <SCORE.INTRA.DIHEDRAL>
-6.9723

>  <SCORE.INTRA.DIHEDRAL.0>
7.18044

>  <SCORE.INTRA.POLAR>
0

>  <SCORE.INTRA.POLAR.0>
0

>  <SCORE.INTRA.REPUL>
0

>  <SCORE.INTRA.REPUL.0>
0

>  <SCORE.INTRA.SOLV>
0.718422

>  <SCORE.INTRA.SOLV.lig_0>
-72.0615

>  <SCORE.INTRA.VDW>
-0.0286979

>  <SCORE.INTRA.VDW.0>
-1.54792

>  <SCORE.INTRA.norm>
-0.143438

>  <SCORE.RESTR>
0

>  <SCORE.RESTR.CAVITY>
0

>  <SCORE.RESTR.norm>
0

>  <SCORE.SYSTEM>
0

>  <SCORE.SYSTEM.CONST>
0

>  <SCORE.SYSTEM.DIHEDRAL>
0

>  <SCORE.SYSTEM.SOLV>
0

>  <SCORE.SYSTEM.norm>
0

>  <SCORE.heavy>
22

>  <SCORE.norm>
-0.385512

>  <RMSD>
33.681

$$$$
lig.pdb
 OpenBabel11021811523D
libRbt.so/2013.1/901 2013/11/27
 22 23  0  0  0  0  0  0  0  0999 V2000
   10.4025  -18.0299   -4.2749 C   0  0  1  0  0  0  0  0  0  0  0  0
    7.9815  -17.9175   -3.6627 C   0  0  1  0  0  0  0  0  0  0  0  0
    7.6484  -16.4180   -4.2370 C   0  0  1  0  0  0  0  0  0  0  0  0
    6.0661  -16.3525   -4.5321 C   0  0  2  0  0  0  0  0  0  0  0  0
   11.8805  -18.2828   -3.7312 C   0  0  1  0  0  0  0  0  0  0  0  0
   12.3513  -17.0783   -2.8262 C   0  0  2  0  0  0  0  0  0  0  0  0
   12.3716  -15.7472   -3.7261 C   0  0  1  0  0  0  0  0  0  0  0  0
   10.8767  -15.4030   -4.2473 C   0  0  1  0  0  0  0  0  0  0  0  0
   10.7980  -14.1199   -5.1202 C   0  0  0  0  0  0  0  0  0  0  0  0
    5.7415  -17.4315   -5.6777 C   0  0  1  0  0  0  0  0  0  0  0  0
    6.0947  -18.8879   -5.0839 C   0  0  0  0  0  0  0  0  0  0  0  0
    7.6390  -18.9872   -4.7273 C   0  0  2  0  0  0  0  0  0  0  0  0
   12.8209  -14.5796   -2.9604 F   0  0  0  0  0  0  0  0  0  0  0  0
   11.8203  -19.6167   -2.9716 N   0  0  0  0  0  0  0  0  0  0  0  0
   11.6208  -14.1448   -6.2736 N   0  0  0  0  0  0  0  0  0  0  0  0
    4.2778  -17.4329   -5.9927 N   0  0  0  0  0  0  0  0  0  0  0  0
    7.9694  -20.2967   -4.1731 N   0  0  0  0  0  0  0  0  0  0  0  0
    9.3531  -18.1004   -3.3937 O   0  0  0  0  0  0  0  0  0  0  0  0
    7.9870  -15.4262   -3.1702 O   0  0  0  0  0  0  0  0  0  0  0  0
    5.7759  -15.0865   -5.0206 O   0  0  0  0  0  0  0  0  0  0  0  0
   13.4444  -17.3144   -2.4594 O   0  0  0  0  0  0  0  0  0  0  0  0
   10.3710  -16.6668   -5.0382 O   0  0  0  0  0  0  0  0  0  0  0  0
  1  5  1  0  0  0  0
  1 18  1  1  0  0  0
  2 18  1  6  0  0  0
  2  3  1  0  0  0  0
  2 12  1  0  0  0  0
  3 19  1  1  0  0  0
  3  4  1  0  0  0  0
  4 20  1  6  0  0  0
  4 10  1  0  0  0  0
  5  6  1  0  0  0  0
  5 14  1  1  0  0  0
  6 21  1  6  0  0  0
  7 13  1  1  0  0  0
  7  6  1  0  0  0  0
  8  9  1  6  0  0  0
  8  7  1  0  0  0  0
 10 16  1  1  0  0  0
 11 10  1  0  0  0  0
 12 17  1  1  0  0  0
 12 11  1  0  0  0  0
 15  9  1  0  0  0  0
 22  8  1  0  0  0  0
 22  1  1  0  0  0  0
M  END
>  <CHROM.1>
-179.73108548,-61.09841769,57.79345401,9.38981270,-16.91049572,-4.20953972
-0.12338030,0.26496691,2.91094734

>  <Name>
lig.pdb

>  <RI>
0

>  <Rbt.Current_Directory>
/home/itssahil/PROJECTS/Mol_Feturizer/New_Systems/rnas/5bxk

>  <Rbt.Executable>
rbdock ($Id: //depot/dev/client3/rdock/2013.1/src/exe/rbdock.cxx#4 $)

>  <Rbt.Library>
libRbt.so (2013.1, Build901 2013/11/27)

>  <Rbt.Parameter_File>
/export/apps/rDock/src/rDock_2013.1_src/data/scripts/dock_solv.prm

>  <Rbt.Receptor>
prm/blind_docking_40.prm

>  <SCORE>
-8.47736

>  <SCORE.INTER>
-5.28636

>  <SCORE.INTER.CONST>
1

>  <SCORE.INTER.POLAR>
0

>  <SCORE.INTER.ROT>
3

>  <SCORE.INTER.SOLV>
16.6084

>  <SCORE.INTER.VDW>
-14.6604

>  <SCORE.INTER.norm>
-0.240289

>  <SCORE.INTRA>
-3.191

>  <SCORE.INTRA.DIHEDRAL>
-7.02159

>  <SCORE.INTRA.DIHEDRAL.0>
7.18044

>  <SCORE.INTRA.POLAR>
0

>  <SCORE.INTRA.POLAR.0>
0

>  <SCORE.INTRA.REPUL>
0

>  <SCORE.INTRA.REPUL.0>
0

>  <SCORE.INTRA.SOLV>
0.655527

>  <SCORE.INTRA.SOLV.lig_0>
-72.0615

>  <SCORE.INTRA.VDW>
-0.00796557

>  <SCORE.INTRA.VDW.0>
-1.54792

>  <SCORE.INTRA.norm>
-0.145045

>  <SCORE.RESTR>
0

>  <SCORE.RESTR.CAVITY>
0

>  <SCORE.RESTR.norm>
0

>  <SCORE.SYSTEM>
0

>  <SCORE.SYSTEM.CONST>
0

>  <SCORE.SYSTEM.DIHEDRAL>
0

>  <SCORE.SYSTEM.SOLV>
0

>  <SCORE.SYSTEM.norm>
0

>  <SCORE.heavy>
22

>  <SCORE.norm>
-0.385335

>  <RMSD>
33.683

$$$$
lig.pdb
 OpenBabel11021811523D
libRbt.so/2013.1/901 2013/11/27
 22 23  0  0  0  0  0  0  0  0999 V2000
    9.4655  -15.7310   -4.6614 C   0  0  1  0  0  0  0  0  0  0  0  0
    9.2940  -17.8846   -3.4040 C   0  0  1  0  0  0  0  0  0  0  0  0
    7.7730  -18.2638   -3.8859 C   0  0  1  0  0  0  0  0  0  0  0  0
    7.5932  -19.8555   -3.7150 C   0  0  2  0  0  0  0  0  0  0  0  0
    9.9945  -14.2271   -4.6090 C   0  0  1  0  0  0  0  0  0  0  0  0
    9.0511  -13.3394   -3.7072 C   0  0  2  0  0  0  0  0  0  0  0  0
    7.5849  -13.3300   -4.3647 C   0  0  1  0  0  0  0  0  0  0  0  0
    6.9693  -14.8285   -4.3772 C   0  0  1  0  0  0  0  0  0  0  0  0
    5.5430  -14.9143   -4.9880 C   0  0  0  0  0  0  0  0  0  0  0  0
    8.6433  -20.5705   -4.6989 C   0  0  1  0  0  0  0  0  0  0  0  0
   10.1227  -20.1634   -4.2048 C   0  0  0  0  0  0  0  0  0  0  0  0
   10.3337  -18.5927   -4.3053 C   0  0  2  0  0  0  0  0  0  0  0  0
    6.6483  -12.5052   -3.5940 F   0  0  0  0  0  0  0  0  0  0  0  0
   11.4317  -14.3116   -4.0733 N   0  0  0  0  0  0  0  0  0  0  0  0
    4.5579  -14.1814   -4.2804 N   0  0  0  0  0  0  0  0  0  0  0  0
    8.5387  -22.0592   -4.5799 N   0  0  0  0  0  0  0  0  0  0  0  0
   11.6649  -18.2087   -3.8453 N   0  0  0  0  0  0  0  0  0  0  0  0
    9.5757  -16.5097   -3.5371 O   0  0  0  0  0  0  0  0  0  0  0  0
    6.8106  -17.5642   -2.9800 O   0  0  0  0  0  0  0  0  0  0  0  0
    6.3085  -20.1852   -4.1228 O   0  0  0  0  0  0  0  0  0  0  0  0
    9.4834  -12.2446   -3.7092 O   0  0  0  0  0  0  0  0  0  0  0  0
    7.9880  -15.7297   -5.1701 O   0  0  0  0  0  0  0  0  0  0  0  0
  1  5  1  0  0  0  0
  1 18  1  1  0  0  0
  2 18  1  6  0  0  0
  2  3  1  0  0  0  0
  2 12  1  0  0  0  0
  3 19  1  1  0  0  0
  3  4  1  0  0  0  0
  4 20  1  6  0  0  0
  4 10  1  0  0  0  0
  5  6  1  0  0  0  0
  5 14  1  1  0  0  0
  6 21  1  6  0  0  0
  7 13  1  1  0  0  0
  7  6  1  0  0  0  0
  8  9  1  6  0  0  0
  8  7  1  0  0  0  0
 10 16  1  1  0  0  0
 11 10  1  0  0  0  0
 12 17  1  1  0  0  0
 12 11  1  0  0  0  0
 15  9  1  0  0  0  0
 22  8  1  0  0  0  0
 22  1  1  0  0  0  0
M  END
>  <CHROM.1>
-173.40308423,-54.82995243,-62.52274802,8.37757480,-16.52804861,-4.11089576
-1.69900798,0.02731600,-3.12817136

>  <Name>
lig.pdb

>  <RI>
0

>  <Rbt.Current_Directory>
/home/itssahil/PROJECTS/Mol_Feturizer/New_Systems/rnas/5bxk

>  <Rbt.Executable>
rbdock ($Id: //depot/dev/client3/rdock/2013.1/src/exe/rbdock.cxx#4 $)

>  <Rbt.Library>
libRbt.so (2013.1, Build901 2013/11/27)

>  <Rbt.Parameter_File>
/export/apps/rDock/src/rDock_2013.1_src/data/scripts/dock_solv.prm

>  <Rbt.Receptor>
prm/blind_docking_100.prm

>  <SCORE>
-9.30482

>  <SCORE.INTER>
-6.43389

>  <SCORE.INTER.CONST>
1

>  <SCORE.INTER.POLAR>
0

>  <SCORE.INTER.ROT>
3

>  <SCORE.INTER.SOLV>
15.453

>  <SCORE.INTER.VDW>
-15.0403

>  <SCORE.INTER.norm>
-0.29245

>  <SCORE.INTRA>
-2.87093

>  <SCORE.INTRA.DIHEDRAL>
-6.68676

>  <SCORE.INTRA.DIHEDRAL.0>
7.18044

>  <SCORE.INTRA.POLAR>
0

>  <SCORE.INTRA.POLAR.0>
0

>  <SCORE.INTRA.REPUL>
0

>  <SCORE.INTRA.REPUL.0>
0

>  <SCORE.INTRA.SOLV>
0.864452

>  <SCORE.INTRA.SOLV.lig_0>
-72.0615

>  <SCORE.INTRA.VDW>
0.0402231

>  <SCORE.INTRA.VDW.0>
-1.54792

>  <SCORE.INTRA.norm>
-0.130497

>  <SCORE.RESTR>
0

>  <SCORE.RESTR.CAVITY>
0

>  <SCORE.RESTR.norm>
0

>  <SCORE.SYSTEM>
0

>  <SCORE.SYSTEM.CONST>
0

>  <SCORE.SYSTEM.DIHEDRAL>
0

>  <SCORE.SYSTEM.SOLV>
0

>  <SCORE.SYSTEM.norm>
0

>  <SCORE.heavy>
22

>  <SCORE.norm>
-0.422946

>  <RMSD>
33.712

$$$$
lig.pdb
 OpenBabel11021811523D
libRbt.so/2013.1/901 2013/11/27
 22 23  0  0  0  0  0  0  0  0999 V2000
    7.8818  -19.4970   -3.8705 C   0  0  1  0  0  0  0  0  0  0  0  0
    9.0303  -17.2992   -4.1847 C   0  0  1  0  0  0  0  0  0  0  0  0
    7.7706  -16.2647   -4.0053 C   0  0  1  0  0  0  0  0  0  0  0  0
    8.1641  -14.8889   -4.7451 C   0  0  2  0  0  0  0  0  0  0  0  0
    7.5970  -20.6703   -2.8282 C   0  0  1  0  0  0  0  0  0  0  0  0
    8.8282  -21.6551   -2.7528 C   0  0  2  0  0  0  0  0  0  0  0  0
    9.0372  -22.3156   -4.2028 C   0  0  1  0  0  0  0  0  0  0  0  0
    9.4012  -21.1711   -5.2902 C   0  0  1  0  0  0  0  0  0  0  0  0
    9.6324  -21.7215   -6.7248 C   0  0  0  0  0  0  0  0  0  0  0  0
    9.4463  -14.2820   -3.9902 C   0  0  1  0  0  0  0  0  0  0  0  0
   10.6567  -15.3304   -4.1747 C   0  0  0  0  0  0  0  0  0  0  0  0
   10.2963  -16.7246   -3.5051 C   0  0  2  0  0  0  0  0  0  0  0  0
   10.1555  -23.2647   -4.2122 F   0  0  0  0  0  0  0  0  0  0  0  0
    7.3022  -19.9743   -1.4909 N   0  0  0  0  0  0  0  0  0  0  0  0
   10.7658  -22.5621   -6.8540 N   0  0  0  0  0  0  0  0  0  0  0  0
    9.8756  -13.0026   -4.6385 N   0  0  0  0  0  0  0  0  0  0  0  0
   11.3784  -17.6889   -3.6793 N   0  0  0  0  0  0  0  0  0  0  0  0
    8.8075  -18.5370   -3.5480 O   0  0  0  0  0  0  0  0  0  0  0  0
    6.5795  -16.8607   -4.6854 O   0  0  0  0  0  0  0  0  0  0  0  0
    7.1034  -14.0067   -4.5962 O   0  0  0  0  0  0  0  0  0  0  0  0
    8.5619  -22.4996   -1.9774 O   0  0  0  0  0  0  0  0  0  0  0  0
    8.2237  -20.1266   -5.2592 O   0  0  0  0  0  0  0  0  0  0  0  0
  1  5  1  0  0  0  0
  1 18  1  1  0  0  0
  2 18  1  1  0  0  0
  2  3  1  0  0  0  0
  2 12  1  0  0  0  0
  3 19  1  6  0  0  0
  3  4  1  0  0  0  0
  4 20  1  1  0  0  0
  4 10  1  0  0  0  0
  5  6  1  0  0  0  0
  5 14  1  1  0  0  0
  6 21  1  1  0  0  0
  7 13  1  1  0  0  0
  7  6  1  0  0  0  0
  8  9  1  6  0  0  0
  8  7  1  0  0  0  0
 10 16  1  6  0  0  0
 11 10  1  0  0  0  0
 12 17  1  6  0  0  0
 12 11  1  0  0  0  0
 15  9  1  0  0  0  0
 22  8  1  0  0  0  0
 22  1  1  0  0  0  0
M  END
>  <CHROM.1>
-166.89552921,66.81895711,-65.57028969,8.92290976,-18.72315513,-4.14972637
1.48384804,-0.76976767,3.07432894

>  <Name>
lig.pdb

>  <RI>
0

>  <Rbt.Current_Directory>
/home/itssahil/PROJECTS/Mol_Feturizer/New_Systems/rnas/5bxk

>  <Rbt.Executable>
rbdock ($Id: //depot/dev/client3/rdock/2013.1/src/exe/rbdock.cxx#4 $)

>  <Rbt.Library>
libRbt.so (2013.1, Build901 2013/11/27)

>  <Rbt.Parameter_File>
/export/apps/rDock/src/rDock_2013.1_src/data/scripts/dock_solv.prm

>  <Rbt.Receptor>
prm/blind_docking_40.prm

>  <SCORE>
-6.00862

>  <SCORE.INTER>
-2.74167

>  <SCORE.INTER.CONST>
1

>  <SCORE.INTER.POLAR>
0

>  <SCORE.INTER.ROT>
3

>  <SCORE.INTER.SOLV>
21.5299

>  <SCORE.INTER.VDW>
-14.6044

>  <SCORE.INTER.norm>
-0.124621

>  <SCORE.INTRA>
-3.26695

>  <SCORE.INTRA.DIHEDRAL>
-5.92338

>  <SCORE.INTRA.DIHEDRAL.0>
7.18044

>  <SCORE.INTRA.POLAR>
0

>  <SCORE.INTRA.POLAR.0>
0

>  <SCORE.INTRA.REPUL>
0

>  <SCORE.INTRA.REPUL.0>
0

>  <SCORE.INTRA.SOLV>
-0.739523

>  <SCORE.INTRA.SOLV.lig_0>
-72.0615

>  <SCORE.INTRA.VDW>
0.0645041

>  <SCORE.INTRA.VDW.0>
-1.54792

>  <SCORE.INTRA.norm>
-0.148498

>  <SCORE.RESTR>
0

>  <SCORE.RESTR.CAVITY>
0

>  <SCORE.RESTR.norm>
0

>  <SCORE.SYSTEM>
0

>  <SCORE.SYSTEM.CONST>
0

>  <SCORE.SYSTEM.DIHEDRAL>
0

>  <SCORE.SYSTEM.SOLV>
0

>  <SCORE.SYSTEM.norm>
0

>  <SCORE.heavy>
22

>  <SCORE.norm>
-0.273119

>  <RMSD>
33.725

$$$$
lig.pdb
 OpenBabel11021811523D
libRbt.so/2013.1/901 2013/11/27
 22 23  0  0  0  0  0  0  0  0999 V2000
    9.4744  -15.7432   -4.6447 C   0  0  1  0  0  0  0  0  0  0  0  0
    9.2968  -17.9024   -3.3977 C   0  0  1  0  0  0  0  0  0  0  0  0
    7.7713  -18.2812   -3.8653 C   0  0  1  0  0  0  0  0  0  0  0  0
    7.5973  -19.8748   -3.7063 C   0  0  2  0  0  0  0  0  0  0  0  0
    9.9957  -14.2372   -4.5799 C   0  0  1  0  0  0  0  0  0  0  0  0
    9.0367  -13.3571   -3.6871 C   0  0  2  0  0  0  0  0  0  0  0  0
    7.5791  -13.3519   -4.3635 C   0  0  1  0  0  0  0  0  0  0  0  0
    6.9706  -14.8532   -4.3895 C   0  0  1  0  0  0  0  0  0  0  0  0
    5.5527  -14.9431   -5.0190 C   0  0  0  0  0  0  0  0  0  0  0  0
    8.6378  -20.5785   -4.7084 C   0  0  1  0  0  0  0  0  0  0  0  0
   10.1218  -20.1720   -4.2279 C   0  0  0  0  0  0  0  0  0  0  0  0
   10.3278  -18.5999   -4.3171 C   0  0  2  0  0  0  0  0  0  0  0  0
    6.6288  -12.5343   -3.6019 F   0  0  0  0  0  0  0  0  0  0  0  0
   11.4262  -14.3172   -4.0259 N   0  0  0  0  0  0  0  0  0  0  0  0
    5.0134  -16.2528   -5.0628 N   0  0  0  0  0  0  0  0  0  0  0  0
    8.5382  -22.0685   -4.6013 N   0  0  0  0  0  0  0  0  0  0  0  0
   11.6633  -18.2166   -3.8690 N   0  0  0  0  0  0  0  0  0  0  0  0
    9.5736  -16.5257   -3.5220 O   0  0  0  0  0  0  0  0  0  0  0  0
    6.8177  -17.5920   -2.9423 O   0  0  0  0  0  0  0  0  0  0  0  0
    6.3088  -20.2042   -4.1021 O   0  0  0  0  0  0  0  0  0  0  0  0
    9.4639  -12.2604   -3.6795 O   0  0  0  0  0  0  0  0  0  0  0  0
    8.0036  -15.7467   -5.1725 O   0  0  0  0  0  0  0  0  0  0  0  0
  1  5  1  0  0  0  0
  1 18  1  1  0  0  0
  2 18  1  6  0  0  0
  2  3  1  0  0  0  0
  2 12  1  0  0  0  0
  3 19  1  1  0  0  0
  3  4  1  0  0  0  0
  4 20  1  6  0  0  0
  4 10  1  0  0  0  0
  5  6  1  0  0  0  0
  5 14  1  1  0  0  0
  6 21  1  6  0  0  0
  7 13  1  1  0  0  0
  7  6  1  0  0  0  0
  8  9  1  6  0  0  0
  8  7  1  0  0  0  0
 10 16  1  1  0  0  0
 11 10  1  0  0  0  0
 12 17  1  1  0  0  0
 12 11  1  0  0  0  0
 15  9  1  0  0  0  0
 22  8  1  0  0  0  0
 22  1  1  0  0  0  0
M  END
>  <CHROM.1>
-173.38663552,-56.27607553,179.30891971,8.39627258,-16.63651054,-4.14065636
-1.62875823,0.07048722,-3.12488568

>  <Name>
lig.pdb

>  <RI>
0

>  <Rbt.Current_Directory>
/home/itssahil/PROJECTS/Mol_Feturizer/New_Systems/rnas/5bxk

>  <Rbt.Executable>
rbdock ($Id: //depot/dev/client3/rdock/2013.1/src/exe/rbdock.cxx#4 $)

>  <Rbt.Library>
libRbt.so (2013.1, Build901 2013/11/27)

>  <Rbt.Parameter_File>
/export/apps/rDock/src/rDock_2013.1_src/data/scripts/dock_solv.prm

>  <Rbt.Receptor>
prm/blind_docking_40.prm

>  <SCORE>
-9.23437

>  <SCORE.INTER>
-6.41441

>  <SCORE.INTER.CONST>
1

>  <SCORE.INTER.POLAR>
0

>  <SCORE.INTER.ROT>
3

>  <SCORE.INTER.SOLV>
14.8239

>  <SCORE.INTER.VDW>
-14.8176

>  <SCORE.INTER.norm>
-0.291564

>  <SCORE.INTRA>
-2.81995

>  <SCORE.INTRA.DIHEDRAL>
-6.76951

>  <SCORE.INTRA.DIHEDRAL.0>
7.18044

>  <SCORE.INTRA.POLAR>
0

>  <SCORE.INTRA.POLAR.0>
0

>  <SCORE.INTRA.REPUL>
0

>  <SCORE.INTRA.REPUL.0>
0

>  <SCORE.INTRA.SOLV>
1.60666

>  <SCORE.INTRA.SOLV.lig_0>
-72.0615

>  <SCORE.INTRA.VDW>
-0.23853

>  <SCORE.INTRA.VDW.0>
-1.54792

>  <SCORE.INTRA.norm>
-0.12818

>  <SCORE.RESTR>
0

>  <SCORE.RESTR.CAVITY>
0

>  <SCORE.RESTR.norm>
0

>  <SCORE.SYSTEM>
0

>  <SCORE.SYSTEM.CONST>
0

>  <SCORE.SYSTEM.DIHEDRAL>
0

>  <SCORE.SYSTEM.SOLV>
0

>  <SCORE.SYSTEM.norm>
0

>  <SCORE.heavy>
22

>  <SCORE.norm>
-0.419744

>  <RMSD>
33.740

$$$$
lig.pdb
 OpenBabel11021811523D
libRbt.so/2013.1/901 2013/11/27
 22 23  0  0  0  0  0  0  0  0999 V2000
    9.5482  -15.7357   -4.6886 C   0  0  1  0  0  0  0  0  0  0  0  0
    9.3725  -17.8956   -3.4427 C   0  0  1  0  0  0  0  0  0  0  0  0
    7.8646  -18.2738   -3.9646 C   0  0  1  0  0  0  0  0  0  0  0  0
    7.6790  -19.8653   -3.7976 C   0  0  2  0  0  0  0  0  0  0  0  0
   10.0928  -14.2375   -4.6330 C   0  0  1  0  0  0  0  0  0  0  0  0
    9.1653  -13.3447   -3.7198 C   0  0  2  0  0  0  0  0  0  0  0  0
    7.6943  -13.3172   -4.3663 C   0  0  1  0  0  0  0  0  0  0  0  0
    7.0634  -14.8094   -4.3814 C   0  0  1  0  0  0  0  0  0  0  0  0
    5.6319  -14.8777   -4.9818 C   0  0  0  0  0  0  0  0  0  0  0  0
    8.7544  -20.5817   -4.7528 C   0  0  1  0  0  0  0  0  0  0  0  0
   10.2205  -20.1755   -4.2199 C   0  0  0  0  0  0  0  0  0  0  0  0
   10.4353  -18.6050   -4.3157 C   0  0  2  0  0  0  0  0  0  0  0  0
    6.7719  -12.4868   -3.5846 F   0  0  0  0  0  0  0  0  0  0  0  0
   11.5330  -14.3392   -4.1085 N   0  0  0  0  0  0  0  0  0  0  0  0
    5.0734  -16.1796   -5.0181 N   0  0  0  0  0  0  0  0  0  0  0  0
    8.6454  -22.0703   -4.6358 N   0  0  0  0  0  0  0  0  0  0  0  0
   11.7541  -18.2218   -3.8206 N   0  0  0  0  0  0  0  0  0  0  0  0
    9.6588  -16.5210   -3.5690 O   0  0  0  0  0  0  0  0  0  0  0  0
    6.8791  -17.5730   -3.0849 O   0  0  0  0  0  0  0  0  0  0  0  0
    6.4053  -20.1942   -4.2392 O   0  0  0  0  0  0  0  0  0  0  0  0
    9.6086  -12.2544   -3.7199 O   0  0  0  0  0  0  0  0  0  0  0  0
    8.0670  -15.7169   -5.1863 O   0  0  0  0  0  0  0  0  0  0  0  0
  1  5  1  0  0  0  0
  1 18  1  1  0  0  0
  2 18  1  6  0  0  0
  2  3  1  0  0  0  0
  2 12  1  0  0  0  0
  3 19  1  1  0  0  0
  3  4  1  0  0  0  0
  4 20  1  6  0  0  0
  4 10  1  0  0  0  0
  5  6  1  0  0  0  0
  5 14  1  1  0  0  0
  6 21  1  6  0  0  0
  7 13  1  1  0  0  0
  7  6  1  0  0  0  0
  8  9  1  6  0  0  0
  8  7  1  0  0  0  0
 10 16  1  1  0  0  0
 11 10  1  0  0  0  0
 12 17  1  1  0  0  0
 12 11  1  0  0  0  0
 15  9  1  0  0  0  0
 22  8  1  0  0  0  0
 22  1  1  0  0  0  0
M  END
>  <CHROM.1>
-172.94131396,-53.10024978,179.20551583,8.49307821,-16.62061467,-4.17486246
-1.63041771,0.07149859,-3.11981632

>  <Name>
lig.pdb

>  <RI>
0

>  <Rbt.Current_Directory>
/home/itssahil/PROJECTS/Mol_Feturizer/New_Systems/rnas/5bxk

>  <Rbt.Executable>
rbdock ($Id: //depot/dev/client3/rdock/2013.1/src/exe/rbdock.cxx#4 $)

>  <Rbt.Library>
libRbt.so (2013.1, Build901 2013/11/27)

>  <Rbt.Parameter_File>
/export/apps/rDock/src/rDock_2013.1_src/data/scripts/dock_solv.prm

>  <Rbt.Receptor>
prm/blind_docking_60.prm

>  <SCORE>
-9.13774

>  <SCORE.INTER>
-6.4812

>  <SCORE.INTER.CONST>
1

>  <SCORE.INTER.POLAR>
0

>  <SCORE.INTER.ROT>
3

>  <SCORE.INTER.SOLV>
14.5336

>  <SCORE.INTER.VDW>
-14.7653

>  <SCORE.INTER.norm>
-0.2946

>  <SCORE.INTRA>
-2.65654

>  <SCORE.INTRA.DIHEDRAL>
-6.5765

>  <SCORE.INTRA.DIHEDRAL.0>
7.18044

>  <SCORE.INTRA.POLAR>
0

>  <SCORE.INTRA.POLAR.0>
0

>  <SCORE.INTRA.REPUL>
0

>  <SCORE.INTRA.REPUL.0>
0

>  <SCORE.INTRA.SOLV>
1.66182

>  <SCORE.INTRA.SOLV.lig_0>
-72.0615

>  <SCORE.INTRA.VDW>
-0.199194

>  <SCORE.INTRA.VDW.0>
-1.54792

>  <SCORE.INTRA.norm>
-0.120752

>  <SCORE.RESTR>
0

>  <SCORE.RESTR.CAVITY>
0

>  <SCORE.RESTR.norm>
0

>  <SCORE.SYSTEM>
0

>  <SCORE.SYSTEM.CONST>
0

>  <SCORE.SYSTEM.DIHEDRAL>
0

>  <SCORE.SYSTEM.SOLV>
0

>  <SCORE.SYSTEM.norm>
0

>  <SCORE.heavy>
22

>  <SCORE.norm>
-0.415352

>  <RMSD>
33.744

$$$$
lig.pdb
 OpenBabel11021811523D
libRbt.so/2013.1/901 2013/11/27
 22 23  0  0  0  0  0  0  0  0999 V2000
    5.5390  -15.2375   -4.9257 C   0  0  1  0  0  0  0  0  0  0  0  0
    7.4133  -14.7234   -3.3536 C   0  0  1  0  0  0  0  0  0  0  0  0
    8.2541  -16.1106   -3.5947 C   0  0  1  0  0  0  0  0  0  0  0  0
    9.7835  -15.8296   -3.1740 C   0  0  2  0  0  0  0  0  0  0  0  0
    3.9649  -15.1289   -5.1589 C   0  0  1  0  0  0  0  0  0  0  0  0
    3.2017  -16.2103   -4.2989 C   0  0  2  0  0  0  0  0  0  0  0  0
    3.6782  -17.6676   -4.7800 C   0  0  1  0  0  0  0  0  0  0  0  0
    5.2623  -17.8581   -4.4986 C   0  0  1  0  0  0  0  0  0  0  0  0
    5.8109  -19.2482   -4.9241 C   0  0  0  0  0  0  0  0  0  0  0  0
   10.3569  -14.6966   -4.1588 C   0  0  1  0  0  0  0  0  0  0  0  0
    9.4984  -13.3561   -3.9050 C   0  0  0  0  0  0  0  0  0  0  0  0
    7.9686  -13.5965   -4.2571 C   0  0  2  0  0  0  0  0  0  0  0  0
    2.9961  -18.7348   -4.0401 F   0  0  0  0  0  0  0  0  0  0  0  0
    3.5884  -13.6879   -4.7829 N   0  0  0  0  0  0  0  0  0  0  0  0
    7.1736  -19.4640   -4.6006 N   0  0  0  0  0  0  0  0  0  0  0  0
   11.7778  -14.3759   -3.8129 N   0  0  0  0  0  0  0  0  0  0  0  0
    7.1766  -12.3940   -4.0161 N   0  0  0  0  0  0  0  0  0  0  0  0
    6.0567  -14.8441   -3.7174 O   0  0  0  0  0  0  0  0  0  0  0  0
    7.6858  -17.1608   -2.6944 O   0  0  0  0  0  0  0  0  0  0  0  0
   10.5028  -16.9987   -3.3770 O   0  0  0  0  0  0  0  0  0  0  0  0
    2.0509  -16.0888   -4.5135 O   0  0  0  0  0  0  0  0  0  0  0  0
    6.0001  -16.6931   -5.2581 O   0  0  0  0  0  0  0  0  0  0  0  0
  1  5  1  0  0  0  0
  1 18  1  1  0  0  0
  2 18  1  6  0  0  0
  2  3  1  0  0  0  0
  2 12  1  0  0  0  0
  3 19  1  1  0  0  0
  3  4  1  0  0  0  0
  4 20  1  6  0  0  0
  4 10  1  0  0  0  0
  5  6  1  0  0  0  0
  5 14  1  1  0  0  0
  6 21  1  6  0  0  0
  7 13  1  1  0  0  0
  7  6  1  0  0  0  0
  8  9  1  6  0  0  0
  8  7  1  0  0  0  0
 10 16  1  1  0  0  0
 11 10  1  0  0  0  0
 12 17  1  1  0  0  0
 12 11  1  0  0  0  0
 15  9  1  0  0  0  0
 22  8  1  0  0  0  0
 22  1  1  0  0  0  0
M  END
>  <CHROM.1>
-172.68575550,-55.35447404,-175.87634388,6.56423938,-15.97952847,-4.16277384
2.80837462,0.14405676,3.12553401

>  <Name>
lig.pdb

>  <RI>
0

>  <Rbt.Current_Directory>
/home/itssahil/PROJECTS/Mol_Feturizer/New_Systems/rnas/5bxk

>  <Rbt.Executable>
rbdock ($Id: //depot/dev/client3/rdock/2013.1/src/exe/rbdock.cxx#4 $)

>  <Rbt.Library>
libRbt.so (2013.1, Build901 2013/11/27)

>  <Rbt.Parameter_File>
/export/apps/rDock/src/rDock_2013.1_src/data/scripts/dock_solv.prm

>  <Rbt.Receptor>
prm/blind_docking_100.prm

>  <SCORE>
-7.62544

>  <SCORE.INTER>
-4.87171

>  <SCORE.INTER.CONST>
1

>  <SCORE.INTER.POLAR>
0

>  <SCORE.INTER.ROT>
3

>  <SCORE.INTER.SOLV>
20.4561

>  <SCORE.INTER.VDW>
-15.6665

>  <SCORE.INTER.norm>
-0.221441

>  <SCORE.INTRA>
-2.75374

>  <SCORE.INTRA.DIHEDRAL>
-6.62587

>  <SCORE.INTRA.DIHEDRAL.0>
7.18044

>  <SCORE.INTRA.POLAR>
0

>  <SCORE.INTRA.POLAR.0>
0

>  <SCORE.INTRA.REPUL>
0

>  <SCORE.INTRA.REPUL.0>
0

>  <SCORE.INTRA.SOLV>
1.56483

>  <SCORE.INTRA.SOLV.lig_0>
-72.0615

>  <SCORE.INTRA.VDW>
-0.223218

>  <SCORE.INTRA.VDW.0>
-1.54792

>  <SCORE.INTRA.norm>
-0.12517

>  <SCORE.RESTR>
0

>  <SCORE.RESTR.CAVITY>
0

>  <SCORE.RESTR.norm>
0

>  <SCORE.SYSTEM>
0

>  <SCORE.SYSTEM.CONST>
0

>  <SCORE.SYSTEM.DIHEDRAL>
0

>  <SCORE.SYSTEM.SOLV>
0

>  <SCORE.SYSTEM.norm>
0

>  <SCORE.heavy>
22

>  <SCORE.norm>
-0.346611

>  <RMSD>
33.759

$$$$
lig.pdb
 OpenBabel11021811523D
libRbt.so/2013.1/901 2013/11/27
 22 23  0  0  0  0  0  0  0  0999 V2000
    5.7343  -15.3584   -4.9424 C   0  0  1  0  0  0  0  0  0  0  0  0
    7.6380  -14.8901   -3.3915 C   0  0  1  0  0  0  0  0  0  0  0  0
    8.4385  -16.2973   -3.6527 C   0  0  1  0  0  0  0  0  0  0  0  0
    9.9791  -16.0612   -3.2455 C   0  0  2  0  0  0  0  0  0  0  0  0
    4.1643  -15.1900   -5.1677 C   0  0  1  0  0  0  0  0  0  0  0  0
    3.3642  -16.2292   -4.2895 C   0  0  2  0  0  0  0  0  0  0  0  0
    3.7790  -17.7103   -4.7549 C   0  0  1  0  0  0  0  0  0  0  0  0
    5.3561  -17.9604   -4.4804 C   0  0  1  0  0  0  0  0  0  0  0  0
    5.8461  -19.3765   -4.8914 C   0  0  0  0  0  0  0  0  0  0  0  0
   10.5730  -14.9358   -4.2267 C   0  0  1  0  0  0  0  0  0  0  0  0
    9.7537  -13.5748   -3.9530 C   0  0  0  0  0  0  0  0  0  0  0  0
    8.2145  -13.7708   -4.2914 C   0  0  2  0  0  0  0  0  0  0  0  0
    3.0597  -18.7400   -3.9974 F   0  0  0  0  0  0  0  0  0  0  0  0
    3.8481  -13.7305   -4.8078 N   0  0  0  0  0  0  0  0  0  0  0  0
    5.2729  -20.4347   -4.1433 N   0  0  0  0  0  0  0  0  0  0  0  0
   12.0055  -14.6564   -3.8928 N   0  0  0  0  0  0  0  0  0  0  0  0
    7.4578  -12.5495   -4.0323 N   0  0  0  0  0  0  0  0  0  0  0  0
    6.2750  -14.9710   -3.7424 O   0  0  0  0  0  0  0  0  0  0  0  0
    7.8511  -17.3394   -2.7553 O   0  0  0  0  0  0  0  0  0  0  0  0
   10.6645  -17.2475   -3.4655 O   0  0  0  0  0  0  0  0  0  0  0  0
    2.2177  -16.0645   -4.4988 O   0  0  0  0  0  0  0  0  0  0  0  0
    6.1349  -16.8353   -5.2591 O   0  0  0  0  0  0  0  0  0  0  0  0
  1  5  1  0  0  0  0
  1 18  1  1  0  0  0
  2 18  1  6  0  0  0
  2  3  1  0  0  0  0
  2 12  1  0  0  0  0
  3 19  1  1  0  0  0
  3  4  1  0  0  0  0
  4 20  1  6  0  0  0
  4 10  1  0  0  0  0
  5  6  1  0  0  0  0
  5 14  1  1  0  0  0
  6 21  1  6  0  0  0
  7 13  1  1  0  0  0
  7  6  1  0  0  0  0
  8  9  1  6  0  0  0
  8  7  1  0  0  0  0
 10 16  1  1  0  0  0
 11 10  1  0  0  0  0
 12 17  1  1  0  0  0
 12 11  1  0  0  0  0
 15  9  1  0  0  0  0
 22  8  1  0  0  0  0
 22  1  1  0  0  0  0
M  END
>  <CHROM.1>
-172.13917318,-54.32679177,-64.74526569,6.64930105,-16.15038410,-4.16409555
2.77587726,0.14101257,3.08002972

>  <Name>
lig.pdb

>  <RI>
0

>  <Rbt.Current_Directory>
/home/itssahil/PROJECTS/Mol_Feturizer/New_Systems/rnas/5bxk

>  <Rbt.Executable>
rbdock ($Id: //depot/dev/client3/rdock/2013.1/src/exe/rbdock.cxx#4 $)

>  <Rbt.Library>
libRbt.so (2013.1, Build901 2013/11/27)

>  <Rbt.Parameter_File>
/export/apps/rDock/src/rDock_2013.1_src/data/scripts/dock_solv.prm

>  <Rbt.Receptor>
prm/blind_docking_80.prm

>  <SCORE>
-7.09048

>  <SCORE.INTER>
-4.28107

>  <SCORE.INTER.CONST>
1

>  <SCORE.INTER.POLAR>
0

>  <SCORE.INTER.ROT>
3

>  <SCORE.INTER.SOLV>
20.4263

>  <SCORE.INTER.VDW>
-15.2628

>  <SCORE.INTER.norm>
-0.194594

>  <SCORE.INTRA>
-2.80941

>  <SCORE.INTRA.DIHEDRAL>
-6.51786

>  <SCORE.INTRA.DIHEDRAL.0>
7.18044

>  <SCORE.INTRA.POLAR>
0

>  <SCORE.INTRA.POLAR.0>
0

>  <SCORE.INTRA.REPUL>
0

>  <SCORE.INTRA.REPUL.0>
0

>  <SCORE.INTRA.SOLV>
0.899433

>  <SCORE.INTRA.SOLV.lig_0>
-72.0615

>  <SCORE.INTRA.VDW>
-0.000194066

>  <SCORE.INTRA.VDW.0>
-1.54792

>  <SCORE.INTRA.norm>
-0.1277

>  <SCORE.RESTR>
0

>  <SCORE.RESTR.CAVITY>
0

>  <SCORE.RESTR.norm>
0

>  <SCORE.SYSTEM>
0

>  <SCORE.SYSTEM.CONST>
0

>  <SCORE.SYSTEM.DIHEDRAL>
0

>  <SCORE.SYSTEM.SOLV>
0

>  <SCORE.SYSTEM.norm>
0

>  <SCORE.heavy>
22

>  <SCORE.norm>
-0.322295

>  <RMSD>
33.779

$$$$
lig.pdb
 OpenBabel11021811523D
libRbt.so/2013.1/901 2013/11/27
 22 23  0  0  0  0  0  0  0  0999 V2000
    9.4016  -15.7211   -4.5919 C   0  0  1  0  0  0  0  0  0  0  0  0
    9.2539  -17.9372   -3.4449 C   0  0  1  0  0  0  0  0  0  0  0  0
    7.7871  -18.3594   -4.0443 C   0  0  1  0  0  0  0  0  0  0  0  0
    7.6708  -19.9637   -3.9554 C   0  0  2  0  0  0  0  0  0  0  0  0
    9.8754  -14.2052   -4.4450 C   0  0  1  0  0  0  0  0  0  0  0  0
    8.8565  -13.3901   -3.5569 C   0  0  2  0  0  0  0  0  0  0  0  0
    7.4272  -13.3972   -4.2913 C   0  0  1  0  0  0  0  0  0  0  0  0
    6.8646  -14.9124   -4.4028 C   0  0  1  0  0  0  0  0  0  0  0  0
    5.4760  -15.0153   -5.0925 C   0  0  0  0  0  0  0  0  0  0  0  0
    8.8153  -20.5858   -4.8963 C   0  0  1  0  0  0  0  0  0  0  0  0
   10.2386  -20.1380   -4.2863 C   0  0  0  0  0  0  0  0  0  0  0  0
   10.3823  -18.5566   -4.3039 C   0  0  2  0  0  0  0  0  0  0  0  0
    6.4239  -12.6388   -3.5364 F   0  0  0  0  0  0  0  0  0  0  0  0
   11.2847  -14.2684   -3.8370 N   0  0  0  0  0  0  0  0  0  0  0  0
    4.9502  -16.3297   -5.1573 N   0  0  0  0  0  0  0  0  0  0  0  0
    8.7725  -22.0816   -4.8495 N   0  0  0  0  0  0  0  0  0  0  0  0
   11.6612  -18.1367   -3.7389 N   0  0  0  0  0  0  0  0  0  0  0  0
    9.4794  -16.5466   -3.4988 O   0  0  0  0  0  0  0  0  0  0  0  0
    6.7360  -17.7454   -3.1758 O   0  0  0  0  0  0  0  0  0  0  0  0
    6.4323  -20.3298   -4.4629 O   0  0  0  0  0  0  0  0  0  0  0  0
    9.2506  -12.2832   -3.4875 O   0  0  0  0  0  0  0  0  0  0  0  0
    7.9535  -15.7434   -5.1787 O   0  0  0  0  0  0  0  0  0  0  0  0
  1  5  1  0  0  0  0
  1 18  1  1  0  0  0
  2 18  1  6  0  0  0
  2  3  1  0  0  0  0
  2 12  1  0  0  0  0
  3 19  1  1  0  0  0
  3  4  1  0  0  0  0
  4 20  1  6  0  0  0
  4 10  1  0  0  0  0
  5  6  1  0  0  0  0
  5 14  1  1  0  0  0
  6 21  1  6  0  0  0
  7 13  1  1  0  0  0
  7  6  1  0  0  0  0
  8  9  1  6  0  0  0
  8  7  1  0  0  0  0
 10 16  1  1  0  0  0
 11 10  1  0  0  0  0
 12 17  1  1  0  0  0
 12 11  1  0  0  0  0
 15  9  1  0  0  0  0
 22  8  1  0  0  0  0
 22  1  1  0  0  0  0
M  END
>  <CHROM.1>
-172.56558004,-54.54108129,-177.98857463,8.35608268,-16.66949315,-4.17468633
-1.67510630,0.11985991,-3.07638770

>  <Name>
lig.pdb

>  <RI>
0

>  <Rbt.Current_Directory>
/home/itssahil/PROJECTS/Mol_Feturizer/New_Systems/rnas/5bxk

>  <Rbt.Executable>
rbdock ($Id: //depot/dev/client3/rdock/2013.1/src/exe/rbdock.cxx#4 $)

>  <Rbt.Library>
libRbt.so (2013.1, Build901 2013/11/27)

>  <Rbt.Parameter_File>
/export/apps/rDock/src/rDock_2013.1_src/data/scripts/dock_solv.prm

>  <Rbt.Receptor>
prm/blind_docking_40.prm

>  <SCORE>
-9.2743

>  <SCORE.INTER>
-6.54356

>  <SCORE.INTER.CONST>
1

>  <SCORE.INTER.POLAR>
0

>  <SCORE.INTER.ROT>
3

>  <SCORE.INTER.SOLV>
15.224

>  <SCORE.INTER.VDW>
-15.037

>  <SCORE.INTER.norm>
-0.297434

>  <SCORE.INTRA>
-2.73075

>  <SCORE.INTRA.DIHEDRAL>
-6.62466

>  <SCORE.INTRA.DIHEDRAL.0>
7.18044

>  <SCORE.INTRA.POLAR>
0

>  <SCORE.INTRA.POLAR.0>
0

>  <SCORE.INTRA.REPUL>
0

>  <SCORE.INTRA.REPUL.0>
0

>  <SCORE.INTRA.SOLV>
1.60428

>  <SCORE.INTRA.SOLV.lig_0>
-72.0615

>  <SCORE.INTRA.VDW>
-0.220556

>  <SCORE.INTRA.VDW.0>
-1.54792

>  <SCORE.INTRA.norm>
-0.124125

>  <SCORE.RESTR>
0

>  <SCORE.RESTR.CAVITY>
0

>  <SCORE.RESTR.norm>
0

>  <SCORE.SYSTEM>
0

>  <SCORE.SYSTEM.CONST>
0

>  <SCORE.SYSTEM.DIHEDRAL>
0

>  <SCORE.SYSTEM.SOLV>
0

>  <SCORE.SYSTEM.norm>
0

>  <SCORE.heavy>
22

>  <SCORE.norm>
-0.421559

>  <RMSD>
33.785

$$$$
lig.pdb
 OpenBabel11021811523D
libRbt.so/2013.1/901 2013/11/27
 22 23  0  0  0  0  0  0  0  0999 V2000
    5.7199  -16.4707   -5.0253 C   0  0  1  0  0  0  0  0  0  0  0  0
    7.1044  -15.1548   -3.4128 C   0  0  1  0  0  0  0  0  0  0  0  0
    8.5012  -15.9784   -3.6577 C   0  0  1  0  0  0  0  0  0  0  0  0
    9.7142  -15.0221   -3.2002 C   0  0  2  0  0  0  0  0  0  0  0  0
    4.3155  -17.1886   -5.2622 C   0  0  1  0  0  0  0  0  0  0  0  0
    4.2290  -18.5253   -4.4274 C   0  0  2  0  0  0  0  0  0  0  0  0
    5.3877  -19.5155   -4.9365 C   0  0  1  0  0  0  0  0  0  0  0  0
    6.8435  -18.8635   -4.6530 C   0  0  1  0  0  0  0  0  0  0  0  0
    8.0296  -19.7599   -5.1048 C   0  0  0  0  0  0  0  0  0  0  0  0
    9.6991  -13.7295   -4.1546 C   0  0  1  0  0  0  0  0  0  0  0  0
    8.3085  -12.9557   -3.8981 C   0  0  0  0  0  0  0  0  0  0  0  0
    7.0753  -13.8778   -4.2865 C   0  0  2  0  0  0  0  0  0  0  0  0
    5.3623  -20.7959   -4.2211 F   0  0  0  0  0  0  0  0  0  0  0  0
    3.2499  -16.1585   -4.8582 N   0  0  0  0  0  0  0  0  0  0  0  0
    8.1399  -20.9843   -4.4001 N   0  0  0  0  0  0  0  0  0  0  0  0
   10.7985  -12.7874   -3.7735 N   0  0  0  0  0  0  0  0  0  0  0  0
    5.8084  -13.1943   -4.0435 N   0  0  0  0  0  0  0  0  0  0  0  0
    5.9679  -15.8896   -3.8073 O   0  0  0  0  0  0  0  0  0  0  0  0
    8.4829  -17.1936   -2.7864 O   0  0  0  0  0  0  0  0  0  0  0  0
   10.9008  -15.7113   -3.4062 O   0  0  0  0  0  0  0  0  0  0  0  0
    3.1800  -19.0133   -4.6438 O   0  0  0  0  0  0  0  0  0  0  0  0
    6.8657  -17.4703   -5.3857 O   0  0  0  0  0  0  0  0  0  0  0  0
  1  5  1  0  0  0  0
  1 18  1  1  0  0  0
  2 18  1  6  0  0  0
  2  3  1  0  0  0  0
  2 12  1  0  0  0  0
  3 19  1  1  0  0  0
  3  4  1  0  0  0  0
  4 20  1  6  0  0  0
  4 10  1  0  0  0  0
  5  6  1  0  0  0  0
  5 14  1  1  0  0  0
  6 21  1  6  0  0  0
  7 13  1  1  0  0  0
  7  6  1  0  0  0  0
  8  9  1  6  0  0  0
  8  7  1  0  0  0  0
 10 16  1  1  0  0  0
 11 10  1  0  0  0  0
 12 17  1  1  0  0  0
 12 11  1  0  0  0  0
 15  9  1  0  0  0  0
 22  8  1  0  0  0  0
 22  1  1  0  0  0  0
M  END
>  <CHROM.1>
-176.64268676,-54.12646560,-64.61372139,6.96691323,-16.73309119,-4.23324726
2.22946505,0.16101496,-3.08320928

>  <Name>
lig.pdb

>  <RI>
0

>  <Rbt.Current_Directory>
/home/itssahil/PROJECTS/Mol_Feturizer/New_Systems/rnas/5bxk

>  <Rbt.Executable>
rbdock ($Id: //depot/dev/client3/rdock/2013.1/src/exe/rbdock.cxx#4 $)

>  <Rbt.Library>
libRbt.so (2013.1, Build901 2013/11/27)

>  <Rbt.Parameter_File>
/export/apps/rDock/src/rDock_2013.1_src/data/scripts/dock_solv.prm

>  <Rbt.Receptor>
prm/blind_docking_100.prm

>  <SCORE>
-7.87224

>  <SCORE.INTER>
-4.99488

>  <SCORE.INTER.CONST>
1

>  <SCORE.INTER.POLAR>
0

>  <SCORE.INTER.ROT>
3

>  <SCORE.INTER.SOLV>
20.4655

>  <SCORE.INTER.VDW>
-15.7518

>  <SCORE.INTER.norm>
-0.22704

>  <SCORE.INTRA>
-2.87736

>  <SCORE.INTRA.DIHEDRAL>
-6.74702

>  <SCORE.INTRA.DIHEDRAL.0>
7.18044

>  <SCORE.INTRA.POLAR>
0

>  <SCORE.INTRA.POLAR.0>
0

>  <SCORE.INTRA.REPUL>
0

>  <SCORE.INTRA.REPUL.0>
0

>  <SCORE.INTRA.SOLV>
0.785843

>  <SCORE.INTRA.SOLV.lig_0>
-72.0615

>  <SCORE.INTRA.VDW>
0.103232

>  <SCORE.INTRA.VDW.0>
-1.54792

>  <SCORE.INTRA.norm>
-0.130789

>  <SCORE.RESTR>
0

>  <SCORE.RESTR.CAVITY>
0

>  <SCORE.RESTR.norm>
0

>  <SCORE.SYSTEM>
0

>  <SCORE.SYSTEM.CONST>
0

>  <SCORE.SYSTEM.DIHEDRAL>
0

>  <SCORE.SYSTEM.SOLV>
0

>  <SCORE.SYSTEM.norm>
0

>  <SCORE.heavy>
22

>  <SCORE.norm>
-0.357829

>  <RMSD>
33.846

$$$$
lig.pdb
 OpenBabel11021811523D
libRbt.so/2013.1/901 2013/11/27
 22 23  0  0  0  0  0  0  0  0999 V2000
    8.5835  -15.6801   -3.4881 C   0  0  1  0  0  0  0  0  0  0  0  0
    6.6428  -14.9908   -4.9048 C   0  0  1  0  0  0  0  0  0  0  0  0
    5.7429  -16.3536   -4.7558 C   0  0  1  0  0  0  0  0  0  0  0  0
    4.2089  -15.9553   -5.0443 C   0  0  2  0  0  0  0  0  0  0  0  0
   10.1707  -15.8239   -3.4216 C   0  0  1  0  0  0  0  0  0  0  0  0
   10.6572  -17.0180   -4.3319 C   0  0  2  0  0  0  0  0  0  0  0  0
   10.0091  -18.3777   -3.7718 C   0  0  1  0  0  0  0  0  0  0  0  0
    8.3941  -18.3134   -3.8833 C   0  0  1  0  0  0  0  0  0  0  0  0
    7.6799  -19.5954   -3.3726 C   0  0  0  0  0  0  0  0  0  0  0  0
    3.7583  -14.9088   -3.9113 C   0  0  1  0  0  0  0  0  0  0  0  0
    4.6726  -13.5918   -4.0789 C   0  0  0  0  0  0  0  0  0  0  0  0
    6.2051  -13.9422   -3.8542 C   0  0  2  0  0  0  0  0  0  0  0  0
   10.4310  -19.5442   -4.5545 F   0  0  0  0  0  0  0  0  0  0  0  0
   10.7291  -14.4637   -3.8665 N   0  0  0  0  0  0  0  0  0  0  0  0
    7.9312  -19.9035   -2.0125 N   0  0  0  0  0  0  0  0  0  0  0  0
    2.3392  -14.4844   -4.1285 N   0  0  0  0  0  0  0  0  0  0  0  0
    7.0462  -12.7605   -4.0192 N   0  0  0  0  0  0  0  0  0  0  0  0
    8.0100  -15.2153   -4.6447 O   0  0  0  0  0  0  0  0  0  0  0  0
    6.1980  -17.3268   -5.7961 O   0  0  0  0  0  0  0  0  0  0  0  0
    3.4399  -17.1034   -4.9183 O   0  0  0  0  0  0  0  0  0  0  0  0
   11.8289  -17.0813   -4.2403 O   0  0  0  0  0  0  0  0  0  0  0  0
    7.9351  -17.0413   -3.0775 O   0  0  0  0  0  0  0  0  0  0  0  0
  1  5  1  0  0  0  0
  1 18  1  6  0  0  0
  2 18  1  1  0  0  0
  2  3  1  0  0  0  0
  2 12  1  0  0  0  0
  3 19  1  6  0  0  0
  3  4  1  0  0  0  0
  4 20  1  1  0  0  0
  4 10  1  0  0  0  0
  5  6  1  0  0  0  0
  5 14  1  6  0  0  0
  6 21  1  1  0  0  0
  7 13  1  6  0  0  0
  7  6  1  0  0  0  0
  8  9  1  1  0  0  0
  8  7  1  0  0  0  0
 10 16  1  6  0  0  0
 11 10  1  0  0  0  0
 12 17  1  6  0  0  0
 12 11  1  0  0  0  0
 15  9  1  0  0  0  0
 22  8  1  0  0  0  0
 22  1  1  0  0  0  0
M  END
>  <CHROM.1>
-178.70957811,-59.99401539,59.89367428,7.44125092,-16.41044656,-4.11436860
-0.46302068,-0.07170615,-0.04776961

>  <Name>
lig.pdb

>  <RI>
0

>  <Rbt.Current_Directory>
/home/itssahil/PROJECTS/Mol_Feturizer/New_Systems/rnas/5bxk

>  <Rbt.Executable>
rbdock ($Id: //depot/dev/client3/rdock/2013.1/src/exe/rbdock.cxx#4 $)

>  <Rbt.Library>
libRbt.so (2013.1, Build901 2013/11/27)

>  <Rbt.Parameter_File>
/export/apps/rDock/src/rDock_2013.1_src/data/scripts/dock_solv.prm

>  <Rbt.Receptor>
prm/blind_docking_60.prm

>  <SCORE>
-7.74758

>  <SCORE.INTER>
-4.56864

>  <SCORE.INTER.CONST>
1

>  <SCORE.INTER.POLAR>
0

>  <SCORE.INTER.ROT>
3

>  <SCORE.INTER.SOLV>
17.571

>  <SCORE.INTER.VDW>
-14.5028

>  <SCORE.INTER.norm>
-0.207666

>  <SCORE.INTRA>
-3.17893

>  <SCORE.INTRA.DIHEDRAL>
-7.03709

>  <SCORE.INTRA.DIHEDRAL.0>
7.18044

>  <SCORE.INTRA.POLAR>
0

>  <SCORE.INTRA.POLAR.0>
0

>  <SCORE.INTRA.REPUL>
0

>  <SCORE.INTRA.REPUL.0>
0

>  <SCORE.INTRA.SOLV>
0.691669

>  <SCORE.INTRA.SOLV.lig_0>
-72.0615

>  <SCORE.INTRA.VDW>
-0.00621982

>  <SCORE.INTRA.VDW.0>
-1.54792

>  <SCORE.INTRA.norm>
-0.144497

>  <SCORE.RESTR>
0

>  <SCORE.RESTR.CAVITY>
0

>  <SCORE.RESTR.norm>
0

>  <SCORE.SYSTEM>
0

>  <SCORE.SYSTEM.CONST>
0

>  <SCORE.SYSTEM.DIHEDRAL>
0

>  <SCORE.SYSTEM.SOLV>
0

>  <SCORE.SYSTEM.norm>
0

>  <SCORE.heavy>
22

>  <SCORE.norm>
-0.352163

>  <RMSD>
33.853

$$$$
lig.pdb
 OpenBabel11021811523D
libRbt.so/2013.1/901 2013/11/27
 22 23  0  0  0  0  0  0  0  0999 V2000
    7.1262  -15.9602   -3.3965 C   0  0  1  0  0  0  0  0  0  0  0  0
    6.9710  -18.0849   -4.7042 C   0  0  1  0  0  0  0  0  0  0  0  0
    8.3256  -18.7075   -4.0210 C   0  0  1  0  0  0  0  0  0  0  0  0
    8.3014  -20.3002   -4.2612 C   0  0  2  0  0  0  0  0  0  0  0  0
    6.6740  -14.4314   -3.3484 C   0  0  1  0  0  0  0  0  0  0  0  0
    7.5740  -13.5574   -4.3063 C   0  0  2  0  0  0  0  0  0  0  0  0
    9.0937  -13.6446   -3.7915 C   0  0  1  0  0  0  0  0  0  0  0  0
    9.6287  -15.1709   -3.8872 C   0  0  1  0  0  0  0  0  0  0  0  0
   11.0993  -15.3494   -3.4184 C   0  0  0  0  0  0  0  0  0  0  0  0
    7.0165  -20.8867   -3.4950 C   0  0  1  0  0  0  0  0  0  0  0  0
    5.7084  -20.2424   -4.1820 C   0  0  0  0  0  0  0  0  0  0  0  0
    5.7105  -18.6629   -4.0173 C   0  0  2  0  0  0  0  0  0  0  0  0
    9.9960  -12.8381   -4.6203 F   0  0  0  0  0  0  0  0  0  0  0  0
    5.1905  -14.4251   -3.7473 N   0  0  0  0  0  0  0  0  0  0  0  0
   12.0525  -14.6521   -4.2017 N   0  0  0  0  0  0  0  0  0  0  0  0
    6.9253  -22.3684   -3.6890 N   0  0  0  0  0  0  0  0  0  0  0  0
    4.5384  -18.0650   -4.6497 N   0  0  0  0  0  0  0  0  0  0  0  0
    6.8708  -16.6896   -4.5302 O   0  0  0  0  0  0  0  0  0  0  0  0
    9.5102  -18.1261   -4.7247 O   0  0  0  0  0  0  0  0  0  0  0  0
    9.4442  -20.8354   -3.6841 O   0  0  0  0  0  0  0  0  0  0  0  0
    7.2016  -12.4437   -4.2268 O   0  0  0  0  0  0  0  0  0  0  0  0
    8.6428  -16.0505   -3.0311 O   0  0  0  0  0  0  0  0  0  0  0  0
  1  5  1  0  0  0  0
  1 18  1  6  0  0  0
  2 18  1  1  0  0  0
  2  3  1  0  0  0  0
  2 12  1  0  0  0  0
  3 19  1  6  0  0  0
  3  4  1  0  0  0  0
  4 20  1  1  0  0  0
  4 10  1  0  0  0  0
  5  6  1  0  0  0  0
  5 14  1  6  0  0  0
  6 21  1  1  0  0  0
  7 13  1  6  0  0  0
  7  6  1  0  0  0  0
  8  9  1  1  0  0  0
  8  7  1  0  0  0  0
 10 16  1  6  0  0  0
 11 10  1  0  0  0  0
 12 17  1  6  0  0  0
 12 11  1  0  0  0  0
 15  9  1  0  0  0  0
 22  8  1  0  0  0  0
 22  1  1  0  0  0  0
M  END
>  <CHROM.1>
-168.17489913,-43.11845473,-63.23650147,7.94651617,-16.81811568,-4.01058394
1.30334792,-0.02178093,-0.01350703

>  <Name>
lig.pdb

>  <RI>
0

>  <Rbt.Current_Directory>
/home/itssahil/PROJECTS/Mol_Feturizer/New_Systems/rnas/5bxk

>  <Rbt.Executable>
rbdock ($Id: //depot/dev/client3/rdock/2013.1/src/exe/rbdock.cxx#4 $)

>  <Rbt.Library>
libRbt.so (2013.1, Build901 2013/11/27)

>  <Rbt.Parameter_File>
/export/apps/rDock/src/rDock_2013.1_src/data/scripts/dock_solv.prm

>  <Rbt.Receptor>
prm/blind_docking_60.prm

>  <SCORE>
-6.60678

>  <SCORE.INTER>
-4.67852

>  <SCORE.INTER.CONST>
1

>  <SCORE.INTER.POLAR>
0

>  <SCORE.INTER.ROT>
3

>  <SCORE.INTER.SOLV>
15.9557

>  <SCORE.INTER.VDW>
-14.0376

>  <SCORE.INTER.norm>
-0.21266

>  <SCORE.INTRA>
-1.92826

>  <SCORE.INTRA.DIHEDRAL>
-5.04743

>  <SCORE.INTRA.DIHEDRAL.0>
7.18044

>  <SCORE.INTRA.POLAR>
0

>  <SCORE.INTRA.POLAR.0>
0

>  <SCORE.INTRA.REPUL>
0

>  <SCORE.INTRA.REPUL.0>
0

>  <SCORE.INTRA.SOLV>
0.984244

>  <SCORE.INTRA.SOLV.lig_0>
-72.0615

>  <SCORE.INTRA.VDW>
0.103337

>  <SCORE.INTRA.VDW.0>
-1.54792

>  <SCORE.INTRA.norm>
-0.087648

>  <SCORE.RESTR>
0

>  <SCORE.RESTR.CAVITY>
0

>  <SCORE.RESTR.norm>
0

>  <SCORE.SYSTEM>
0

>  <SCORE.SYSTEM.CONST>
0

>  <SCORE.SYSTEM.DIHEDRAL>
0

>  <SCORE.SYSTEM.SOLV>
0

>  <SCORE.SYSTEM.norm>
0

>  <SCORE.heavy>
22

>  <SCORE.norm>
-0.300308

>  <RMSD>
33.856

$$$$
lig.pdb
 OpenBabel11021811523D
libRbt.so/2013.1/901 2013/11/27
 22 23  0  0  0  0  0  0  0  0999 V2000
    5.6918  -16.4566   -5.0293 C   0  0  1  0  0  0  0  0  0  0  0  0
    7.1131  -15.1595   -3.4336 C   0  0  1  0  0  0  0  0  0  0  0  0
    8.4881  -16.0162   -3.6880 C   0  0  1  0  0  0  0  0  0  0  0  0
    9.7268  -15.0884   -3.2408 C   0  0  2  0  0  0  0  0  0  0  0  0
    4.2792  -17.1645   -5.2467 C   0  0  1  0  0  0  0  0  0  0  0  0
    4.1897  -18.4936   -4.4000 C   0  0  2  0  0  0  0  0  0  0  0  0
    5.3350  -19.4977   -4.9121 C   0  0  1  0  0  0  0  0  0  0  0  0
    6.7989  -18.8556   -4.6481 C   0  0  1  0  0  0  0  0  0  0  0  0
    7.9730  -19.7657   -5.1039 C   0  0  0  0  0  0  0  0  0  0  0  0
    9.7351  -13.7968   -4.1967 C   0  0  1  0  0  0  0  0  0  0  0  0
    8.3651  -12.9900   -3.9306 C   0  0  0  0  0  0  0  0  0  0  0  0
    7.1075  -13.8831   -4.3086 C   0  0  2  0  0  0  0  0  0  0  0  0
    5.3059  -20.7718   -4.1860 F   0  0  0  0  0  0  0  0  0  0  0  0
    3.2263  -16.1221   -4.8409 N   0  0  0  0  0  0  0  0  0  0  0  0
    8.0912  -20.9769   -4.3779 N   0  0  0  0  0  0  0  0  0  0  0  0
   10.8593  -12.8806   -3.8250 N   0  0  0  0  0  0  0  0  0  0  0  0
    5.8590  -13.1695   -4.0569 N   0  0  0  0  0  0  0  0  0  0  0  0
    5.9565  -15.8676   -3.8187 O   0  0  0  0  0  0  0  0  0  0  0  0
    8.4476  -17.2297   -2.8151 O   0  0  0  0  0  0  0  0  0  0  0  0
   10.8952  -15.8057   -3.4549 O   0  0  0  0  0  0  0  0  0  0  0  0
    3.1346  -18.9744   -4.6022 O   0  0  0  0  0  0  0  0  0  0  0  0
    6.8257  -17.4687   -5.3926 O   0  0  0  0  0  0  0  0  0  0  0  0
  1  5  1  0  0  0  0
  1 18  1  1  0  0  0
  2 18  1  6  0  0  0
  2  3  1  0  0  0  0
  2 12  1  0  0  0  0
  3 19  1  1  0  0  0
  3  4  1  0  0  0  0
  4 20  1  6  0  0  0
  4 10  1  0  0  0  0
  5  6  1  0  0  0  0
  5 14  1  1  0  0  0
  6 21  1  6  0  0  0
  7 13  1  1  0  0  0
  7  6  1  0  0  0  0
  8  9  1  6  0  0  0
  8  7  1  0  0  0  0
 10 16  1  1  0  0  0
 11 10  1  0  0  0  0
 12 17  1  1  0  0  0
 12 11  1  0  0  0  0
 15  9  1  0  0  0  0
 22  8  1  0  0  0  0
 22  1  1  0  0  0  0
M  END
>  <CHROM.1>
-177.87604286,-53.34183059,-65.43673068,6.95302510,-16.74157255,-4.24008223
2.24807582,0.15350662,-3.09146039

>  <Name>
lig.pdb

>  <RI>
0

>  <Rbt.Current_Directory>
/home/itssahil/PROJECTS/Mol_Feturizer/New_Systems/rnas/5bxk

>  <Rbt.Executable>
rbdock ($Id: //depot/dev/client3/rdock/2013.1/src/exe/rbdock.cxx#4 $)

>  <Rbt.Library>
libRbt.so (2013.1, Build901 2013/11/27)

>  <Rbt.Parameter_File>
/export/apps/rDock/src/rDock_2013.1_src/data/scripts/dock_solv.prm

>  <Rbt.Receptor>
prm/blind_docking_100.prm

>  <SCORE>
-7.84922

>  <SCORE.INTER>
-5.02417

>  <SCORE.INTER.CONST>
1

>  <SCORE.INTER.POLAR>
0

>  <SCORE.INTER.ROT>
3

>  <SCORE.INTER.SOLV>
19.9932

>  <SCORE.INTER.VDW>
-15.6138

>  <SCORE.INTER.norm>
-0.228372

>  <SCORE.INTRA>
-2.82504

>  <SCORE.INTRA.DIHEDRAL>
-6.70196

>  <SCORE.INTRA.DIHEDRAL.0>
7.18044

>  <SCORE.INTRA.POLAR>
0

>  <SCORE.INTRA.POLAR.0>
0

>  <SCORE.INTRA.REPUL>
0

>  <SCORE.INTRA.REPUL.0>
0

>  <SCORE.INTRA.SOLV>
0.762597

>  <SCORE.INTRA.SOLV.lig_0>
-72.0615

>  <SCORE.INTRA.VDW>
0.144637

>  <SCORE.INTRA.VDW.0>
-1.54792

>  <SCORE.INTRA.norm>
-0.128411

>  <SCORE.RESTR>
0

>  <SCORE.RESTR.CAVITY>
0

>  <SCORE.RESTR.norm>
0

>  <SCORE.SYSTEM>
0

>  <SCORE.SYSTEM.CONST>
0

>  <SCORE.SYSTEM.DIHEDRAL>
0

>  <SCORE.SYSTEM.SOLV>
0

>  <SCORE.SYSTEM.norm>
0

>  <SCORE.heavy>
22

>  <SCORE.norm>
-0.356783

>  <RMSD>
33.860

$$$$
lig.pdb
 OpenBabel11021811523D
libRbt.so/2013.1/901 2013/11/27
 22 23  0  0  0  0  0  0  0  0999 V2000
    8.6598  -15.7675   -3.5057 C   0  0  1  0  0  0  0  0  0  0  0  0
    6.7313  -15.0135   -4.9060 C   0  0  1  0  0  0  0  0  0  0  0  0
    5.7684  -16.3346   -4.7761 C   0  0  1  0  0  0  0  0  0  0  0  0
    4.2525  -15.8571   -5.0391 C   0  0  2  0  0  0  0  0  0  0  0  0
   10.2480  -15.8928   -3.4287 C   0  0  1  0  0  0  0  0  0  0  0  0
   10.7545  -17.0808   -4.3361 C   0  0  2  0  0  0  0  0  0  0  0  0
   10.1186  -18.4481   -3.7808 C   0  0  1  0  0  0  0  0  0  0  0  0
    8.5037  -18.4027   -3.9031 C   0  0  1  0  0  0  0  0  0  0  0  0
    7.8011  -19.6931   -3.3976 C   0  0  0  0  0  0  0  0  0  0  0  0
    3.8642  -14.8152   -3.8790 C   0  0  1  0  0  0  0  0  0  0  0  0
    4.8390  -13.5401   -4.0287 C   0  0  0  0  0  0  0  0  0  0  0  0
    6.3551  -13.9684   -3.8285 C   0  0  2  0  0  0  0  0  0  0  0  0
   10.5593  -19.6093   -4.5611 F   0  0  0  0  0  0  0  0  0  0  0  0
   10.7936  -14.5260   -3.8694 N   0  0  0  0  0  0  0  0  0  0  0  0
    6.3951  -19.7020   -3.5743 N   0  0  0  0  0  0  0  0  0  0  0  0
    2.4650  -14.3186   -4.0714 N   0  0  0  0  0  0  0  0  0  0  0  0
    7.2504  -12.8250   -3.9776 N   0  0  0  0  0  0  0  0  0  0  0  0
    8.0886  -15.3089   -4.6659 O   0  0  0  0  0  0  0  0  0  0  0  0
    6.1656  -17.3056   -5.8418 O   0  0  0  0  0  0  0  0  0  0  0  0
    3.4304  -16.9695   -4.9290 O   0  0  0  0  0  0  0  0  0  0  0  0
   11.9263  -17.1304   -4.2368 O   0  0  0  0  0  0  0  0  0  0  0  0
    8.0245  -17.1363   -3.0999 O   0  0  0  0  0  0  0  0  0  0  0  0
  1  5  1  0  0  0  0
  1 18  1  6  0  0  0
  2 18  1  1  0  0  0
  2  3  1  0  0  0  0
  2 12  1  0  0  0  0
  3 19  1  6  0  0  0
  3  4  1  0  0  0  0
  4 20  1  1  0  0  0
  4 10  1  0  0  0  0
  5  6  1  0  0  0  0
  5 14  1  6  0  0  0
  6 21  1  1  0  0  0
  7 13  1  6  0  0  0
  7  6  1  0  0  0  0
  8  9  1  1  0  0  0
  8  7  1  0  0  0  0
 10 16  1  6  0  0  0
 11 10  1  0  0  0  0
 12 17  1  6  0  0  0
 12 11  1  0  0  0  0
 15  9  1  0  0  0  0
 22  8  1  0  0  0  0
 22  1  1  0  0  0  0
M  END
>  <CHROM.1>
-173.96471678,-63.29591967,-176.29499762,7.45900058,-16.41895021,-4.18478779
-0.43691640,-0.07841045,0.03033786

>  <Name>
lig.pdb

>  <RI>
0

>  <Rbt.Current_Directory>
/home/itssahil/PROJECTS/Mol_Feturizer/New_Systems/rnas/5bxk

>  <Rbt.Executable>
rbdock ($Id: //depot/dev/client3/rdock/2013.1/src/exe/rbdock.cxx#4 $)

>  <Rbt.Library>
libRbt.so (2013.1, Build901 2013/11/27)

>  <Rbt.Parameter_File>
/export/apps/rDock/src/rDock_2013.1_src/data/scripts/dock_solv.prm

>  <Rbt.Receptor>
prm/blind_docking_80.prm

>  <SCORE>
-7.40096

>  <SCORE.INTER>
-4.50424

>  <SCORE.INTER.CONST>
1

>  <SCORE.INTER.POLAR>
0

>  <SCORE.INTER.ROT>
3

>  <SCORE.INTER.SOLV>
17.473

>  <SCORE.INTER.VDW>
-14.4272

>  <SCORE.INTER.norm>
-0.204738

>  <SCORE.INTRA>
-2.89673

>  <SCORE.INTRA.DIHEDRAL>
-6.76968

>  <SCORE.INTRA.DIHEDRAL.0>
7.18044

>  <SCORE.INTRA.POLAR>
0

>  <SCORE.INTRA.POLAR.0>
0

>  <SCORE.INTRA.REPUL>
0

>  <SCORE.INTRA.REPUL.0>
0

>  <SCORE.INTRA.SOLV>
1.36132

>  <SCORE.INTRA.SOLV.lig_0>
-72.0615

>  <SCORE.INTRA.VDW>
-0.192547

>  <SCORE.INTRA.VDW.0>
-1.54792

>  <SCORE.INTRA.norm>
-0.131669

>  <SCORE.RESTR>
0

>  <SCORE.RESTR.CAVITY>
0

>  <SCORE.RESTR.norm>
0

>  <SCORE.SYSTEM>
0

>  <SCORE.SYSTEM.CONST>
0

>  <SCORE.SYSTEM.DIHEDRAL>
0

>  <SCORE.SYSTEM.SOLV>
0

>  <SCORE.SYSTEM.norm>
0

>  <SCORE.heavy>
22

>  <SCORE.norm>
-0.336407

>  <RMSD>
33.903

$$$$
lig.pdb
 OpenBabel11021811523D
libRbt.so/2013.1/901 2013/11/27
 22 23  0  0  0  0  0  0  0  0999 V2000
    7.2917  -16.0458   -3.4111 C   0  0  1  0  0  0  0  0  0  0  0  0
    6.9316  -18.1064   -4.7796 C   0  0  1  0  0  0  0  0  0  0  0  0
    8.1119  -18.9149   -3.9782 C   0  0  1  0  0  0  0  0  0  0  0  0
    7.9078  -20.4858   -4.2706 C   0  0  2  0  0  0  0  0  0  0  0  0
    6.8997  -14.5045   -3.2893 C   0  0  1  0  0  0  0  0  0  0  0  0
    7.8214  -13.6235   -4.2198 C   0  0  2  0  0  0  0  0  0  0  0  0
    9.3427  -13.7917   -3.7303 C   0  0  1  0  0  0  0  0  0  0  0  0
    9.8169  -15.3315   -3.9008 C   0  0  1  0  0  0  0  0  0  0  0  0
   11.2850  -15.5868   -3.4606 C   0  0  0  0  0  0  0  0  0  0  0  0
    6.4823  -20.9109   -3.6630 C   0  0  1  0  0  0  0  0  0  0  0  0
    5.3509  -20.0870   -4.4628 C   0  0  0  0  0  0  0  0  0  0  0  0
    5.5397  -18.5248   -4.2480 C   0  0  2  0  0  0  0  0  0  0  0  0
   10.2655  -12.9839   -4.5349 F   0  0  0  0  0  0  0  0  0  0  0  0
    5.4130  -14.4238   -3.6671 N   0  0  0  0  0  0  0  0  0  0  0  0
   11.7738  -16.8797   -3.7730 N   0  0  0  0  0  0  0  0  0  0  0  0
    6.2214  -22.3638   -3.9130 N   0  0  0  0  0  0  0  0  0  0  0  0
    4.5305  -17.7659   -4.9806 N   0  0  0  0  0  0  0  0  0  0  0  0
    6.9947  -16.7134   -4.5724 O   0  0  0  0  0  0  0  0  0  0  0  0
    9.4311  -18.4827   -4.5344 O   0  0  0  0  0  0  0  0  0  0  0  0
    8.9022  -21.1778   -3.5940 O   0  0  0  0  0  0  0  0  0  0  0  0
    7.4935  -12.5011   -4.0861 O   0  0  0  0  0  0  0  0  0  0  0  0
    8.8080  -16.2102   -3.0710 O   0  0  0  0  0  0  0  0  0  0  0  0
  1  5  1  0  0  0  0
  1 18  1  6  0  0  0
  2 18  1  1  0  0  0
  2  3  1  0  0  0  0
  2 12  1  0  0  0  0
  3 19  1  6  0  0  0
  3  4  1  0  0  0  0
  4 20  1  1  0  0  0
  4 10  1  0  0  0  0
  5  6  1  0  0  0  0
  5 14  1  6  0  0  0
  6 21  1  1  0  0  0
  7 13  1  6  0  0  0
  7  6  1  0  0  0  0
  8  9  1  1  0  0  0
  8  7  1  0  0  0  0
 10 16  1  6  0  0  0
 11 10  1  0  0  0  0
 12 17  1  6  0  0  0
 12 11  1  0  0  0  0
 15  9  1  0  0  0  0
 22  8  1  0  0  0  0
 22  1  1  0  0  0  0
M  END
>  <CHROM.1>
-162.44130536,-39.11853337,-171.73351449,7.90731532,-16.99920800,-4.01552002
1.25034404,-0.07833908,0.00024899

>  <Name>
lig.pdb

>  <RI>
0

>  <Rbt.Current_Directory>
/home/itssahil/PROJECTS/Mol_Feturizer/New_Systems/rnas/5bxk

>  <Rbt.Executable>
rbdock ($Id: //depot/dev/client3/rdock/2013.1/src/exe/rbdock.cxx#4 $)

>  <Rbt.Library>
libRbt.so (2013.1, Build901 2013/11/27)

>  <Rbt.Parameter_File>
/export/apps/rDock/src/rDock_2013.1_src/data/scripts/dock_solv.prm

>  <Rbt.Receptor>
prm/blind_docking_80.prm

>  <SCORE>
-6.25171

>  <SCORE.INTER>
-5.20902

>  <SCORE.INTER.CONST>
1

>  <SCORE.INTER.POLAR>
0

>  <SCORE.INTER.ROT>
3

>  <SCORE.INTER.SOLV>
16.4815

>  <SCORE.INTER.VDW>
-14.5665

>  <SCORE.INTER.norm>
-0.236774

>  <SCORE.INTRA>
-1.04269

>  <SCORE.INTRA.DIHEDRAL>
-3.48992

>  <SCORE.INTRA.DIHEDRAL.0>
7.18044

>  <SCORE.INTRA.POLAR>
0

>  <SCORE.INTRA.POLAR.0>
0

>  <SCORE.INTRA.REPUL>
0

>  <SCORE.INTRA.REPUL.0>
0

>  <SCORE.INTRA.SOLV>
1.53392

>  <SCORE.INTRA.SOLV.lig_0>
-72.0615

>  <SCORE.INTRA.VDW>
-0.064686

>  <SCORE.INTRA.VDW.0>
-1.54792

>  <SCORE.INTRA.norm>
-0.0473948

>  <SCORE.RESTR>
0

>  <SCORE.RESTR.CAVITY>
0

>  <SCORE.RESTR.norm>
0

>  <SCORE.SYSTEM>
0

>  <SCORE.SYSTEM.CONST>
0

>  <SCORE.SYSTEM.DIHEDRAL>
0

>  <SCORE.SYSTEM.SOLV>
0

>  <SCORE.SYSTEM.norm>
0

>  <SCORE.heavy>
22

>  <SCORE.norm>
-0.284168

>  <RMSD>
33.931

$$$$
lig.pdb
 OpenBabel11021811523D
libRbt.so/2013.1/901 2013/11/27
 22 23  0  0  0  0  0  0  0  0999 V2000
    4.8235  -14.1902   -4.4007 C   0  0  1  0  0  0  0  0  0  0  0  0
    7.2188  -14.8117   -4.0470 C   0  0  1  0  0  0  0  0  0  0  0  0
    7.9932  -13.4181   -3.6630 C   0  0  1  0  0  0  0  0  0  0  0  0
    9.5421  -13.5970   -4.0681 C   0  0  2  0  0  0  0  0  0  0  0  0
    3.3776  -14.1337   -3.7298 C   0  0  1  0  0  0  0  0  0  0  0  0
    2.7321  -15.5733   -3.6833 C   0  0  2  0  0  0  0  0  0  0  0  0
    2.5620  -16.1004   -5.1918 C   0  0  1  0  0  0  0  0  0  0  0  0
    4.0122  -16.2450   -5.8993 C   0  0  1  0  0  0  0  0  0  0  0  0
    3.9458  -16.7616   -7.3633 C   0  0  0  0  0  0  0  0  0  0  0  0
   10.1428  -14.7888   -3.1731 C   0  0  1  0  0  0  0  0  0  0  0  0
    9.3489  -16.1356   -3.5661 C   0  0  0  0  0  0  0  0  0  0  0  0
    7.8029  -15.9911   -3.2329 C   0  0  2  0  0  0  0  0  0  0  0  0
    1.9459  -17.4308   -5.2370 F   0  0  0  0  0  0  0  0  0  0  0  0
    3.5912  -13.5262   -2.3352 N   0  0  0  0  0  0  0  0  0  0  0  0
    3.4372  -18.0774   -7.4975 N   0  0  0  0  0  0  0  0  0  0  0  0
   11.5833  -15.0184   -3.5099 N   0  0  0  0  0  0  0  0  0  0  0  0
    7.0692  -17.1988   -3.5993 N   0  0  0  0  0  0  0  0  0  0  0  0
    5.8507  -14.7802   -3.7084 O   0  0  0  0  0  0  0  0  0  0  0  0
    7.3994  -12.3160   -4.4810 O   0  0  0  0  0  0  0  0  0  0  0  0
   10.2054  -12.4220   -3.7444 O   0  0  0  0  0  0  0  0  0  0  0  0
    1.6699  -15.4715   -3.1867 O   0  0  0  0  0  0  0  0  0  0  0  0
    4.6972  -14.8297   -5.8209 O   0  0  0  0  0  0  0  0  0  0  0  0
  1  5  1  0  0  0  0
  1 18  1  1  0  0  0
  2 18  1  1  0  0  0
  2  3  1  0  0  0  0
  2 12  1  0  0  0  0
  3 19  1  6  0  0  0
  3  4  1  0  0  0  0
  4 20  1  1  0  0  0
  4 10  1  0  0  0  0
  5  6  1  0  0  0  0
  5 14  1  1  0  0  0
  6 21  1  6  0  0  0
  7 13  1  1  0  0  0
  7  6  1  0  0  0  0
  8  9  1  6  0  0  0
  8  7  1  0  0  0  0
 10 16  1  6  0  0  0
 11 10  1  0  0  0  0
 12 17  1  6  0  0  0
 12 11  1  0  0  0  0
 15  9  1  0  0  0  0
 22  8  1  0  0  0  0
 22  1  1  0  0  0  0
M  END
>  <CHROM.1>
-172.65262072,79.77252085,-64.13961258,5.88681547,-15.13555404,-4.34164001
2.78153982,0.00780997,-2.54004859

>  <Name>
lig.pdb

>  <RI>
0

>  <Rbt.Current_Directory>
/home/itssahil/PROJECTS/Mol_Feturizer/New_Systems/rnas/5bxk

>  <Rbt.Executable>
rbdock ($Id: //depot/dev/client3/rdock/2013.1/src/exe/rbdock.cxx#4 $)

>  <Rbt.Library>
libRbt.so (2013.1, Build901 2013/11/27)

>  <Rbt.Parameter_File>
/export/apps/rDock/src/rDock_2013.1_src/data/scripts/dock_solv.prm

>  <Rbt.Receptor>
prm/blind_docking_20.prm

>  <SCORE>
-8.31889

>  <SCORE.INTER>
-5.55562

>  <SCORE.INTER.CONST>
1

>  <SCORE.INTER.POLAR>
0

>  <SCORE.INTER.ROT>
3

>  <SCORE.INTER.SOLV>
18.964

>  <SCORE.INTER.VDW>
-15.6251

>  <SCORE.INTER.norm>
-0.252528

>  <SCORE.INTRA>
-2.76327

>  <SCORE.INTRA.DIHEDRAL>
-4.96784

>  <SCORE.INTRA.DIHEDRAL.0>
7.18044

>  <SCORE.INTRA.POLAR>
0

>  <SCORE.INTRA.POLAR.0>
0

>  <SCORE.INTRA.REPUL>
0

>  <SCORE.INTRA.REPUL.0>
0

>  <SCORE.INTRA.SOLV>
-0.39708

>  <SCORE.INTRA.SOLV.lig_0>
-72.0615

>  <SCORE.INTRA.VDW>
-0.080803

>  <SCORE.INTRA.VDW.0>
-1.54792

>  <SCORE.INTRA.norm>
-0.125603

>  <SCORE.RESTR>
0

>  <SCORE.RESTR.CAVITY>
0

>  <SCORE.RESTR.norm>
0

>  <SCORE.SYSTEM>
0

>  <SCORE.SYSTEM.CONST>
0

>  <SCORE.SYSTEM.DIHEDRAL>
0

>  <SCORE.SYSTEM.SOLV>
0

>  <SCORE.SYSTEM.norm>
0

>  <SCORE.heavy>
22

>  <SCORE.norm>
-0.378131

>  <RMSD>
33.933

$$$$
lig.pdb
 OpenBabel11021811523D
libRbt.so/2013.1/901 2013/11/27
 22 23  0  0  0  0  0  0  0  0999 V2000
    8.4600  -15.7722   -3.4904 C   0  0  1  0  0  0  0  0  0  0  0  0
    6.5680  -15.0223   -4.9418 C   0  0  1  0  0  0  0  0  0  0  0  0
    5.6348  -16.3697   -4.8892 C   0  0  1  0  0  0  0  0  0  0  0  0
    4.1184  -15.9214   -5.1968 C   0  0  2  0  0  0  0  0  0  0  0  0
   10.0419  -15.9486   -3.3889 C   0  0  1  0  0  0  0  0  0  0  0  0
   10.5244  -17.1494   -4.2926 C   0  0  2  0  0  0  0  0  0  0  0  0
    9.8362  -18.4974   -3.7523 C   0  0  1  0  0  0  0  0  0  0  0  0
    8.2258  -18.3997   -3.8998 C   0  0  1  0  0  0  0  0  0  0  0  0
    7.4742  -19.6685   -3.4101 C   0  0  0  0  0  0  0  0  0  0  0  0
    3.6595  -14.9254   -4.0223 C   0  0  1  0  0  0  0  0  0  0  0  0
    4.6066  -13.6230   -4.0956 C   0  0  0  0  0  0  0  0  0  0  0  0
    6.1243  -14.0203   -3.8492 C   0  0  2  0  0  0  0  0  0  0  0  0
   10.2518  -19.6697   -4.5298 F   0  0  0  0  0  0  0  0  0  0  0  0
   10.6379  -14.5987   -3.8159 N   0  0  0  0  0  0  0  0  0  0  0  0
    7.6590  -19.9652   -2.0368 N   0  0  0  0  0  0  0  0  0  0  0  0
    2.2565  -14.4573   -4.2543 N   0  0  0  0  0  0  0  0  0  0  0  0
    6.9952  -12.8514   -3.9290 N   0  0  0  0  0  0  0  0  0  0  0  0
    7.9222  -15.2918   -4.6578 O   0  0  0  0  0  0  0  0  0  0  0  0
    6.0972  -17.2975   -5.9670 O   0  0  0  0  0  0  0  0  0  0  0  0
    3.3213  -17.0563   -5.1522 O   0  0  0  0  0  0  0  0  0  0  0  0
   11.6922  -17.2370   -4.1750 O   0  0  0  0  0  0  0  0  0  0  0  0
    7.7748  -17.1211   -3.0996 O   0  0  0  0  0  0  0  0  0  0  0  0
  1  5  1  0  0  0  0
  1 18  1  6  0  0  0
  2 18  1  1  0  0  0
  2  3  1  0  0  0  0
  2 12  1  0  0  0  0
  3 19  1  6  0  0  0
  3  4  1  0  0  0  0
  4 20  1  1  0  0  0
  4 10  1  0  0  0  0
  5  6  1  0  0  0  0
  5 14  1  6  0  0  0
  6 21  1  1  0  0  0
  7 13  1  6  0  0  0
  7  6  1  0  0  0  0
  8  9  1  1  0  0  0
  8  7  1  0  0  0  0
 10 16  1  6  0  0  0
 11 10  1  0  0  0  0
 12 17  1  6  0  0  0
 12 11  1  0  0  0  0
 15  9  1  0  0  0  0
 22  8  1  0  0  0  0
 22  1  1  0  0  0  0
M  END
>  <CHROM.1>
-177.81795470,-63.28027400,61.55718169,7.31612353,-16.47394400,-4.14966530
-0.47919658,-0.10198646,-0.03246048

>  <Name>
lig.pdb

>  <RI>
0

>  <Rbt.Current_Directory>
/home/itssahil/PROJECTS/Mol_Feturizer/New_Systems/rnas/5bxk

>  <Rbt.Executable>
rbdock ($Id: //depot/dev/client3/rdock/2013.1/src/exe/rbdock.cxx#4 $)

>  <Rbt.Library>
libRbt.so (2013.1, Build901 2013/11/27)

>  <Rbt.Parameter_File>
/export/apps/rDock/src/rDock_2013.1_src/data/scripts/dock_solv.prm

>  <Rbt.Receptor>
prm/blind_docking_100.prm

>  <SCORE>
-7.80911

>  <SCORE.INTER>
-4.65813

>  <SCORE.INTER.CONST>
1

>  <SCORE.INTER.POLAR>
0

>  <SCORE.INTER.ROT>
3

>  <SCORE.INTER.SOLV>
17.3645

>  <SCORE.INTER.VDW>
-14.4936

>  <SCORE.INTER.norm>
-0.211733

>  <SCORE.INTRA>
-3.15098

>  <SCORE.INTRA.DIHEDRAL>
-6.96037

>  <SCORE.INTRA.DIHEDRAL.0>
7.18044

>  <SCORE.INTRA.POLAR>
0

>  <SCORE.INTRA.POLAR.0>
0

>  <SCORE.INTRA.REPUL>
0

>  <SCORE.INTRA.REPUL.0>
0

>  <SCORE.INTRA.SOLV>
0.703459

>  <SCORE.INTRA.SOLV.lig_0>
-72.0615

>  <SCORE.INTRA.VDW>
-0.0225299

>  <SCORE.INTRA.VDW.0>
-1.54792

>  <SCORE.INTRA.norm>
-0.143227

>  <SCORE.RESTR>
0

>  <SCORE.RESTR.CAVITY>
0

>  <SCORE.RESTR.norm>
0

>  <SCORE.SYSTEM>
0

>  <SCORE.SYSTEM.CONST>
0

>  <SCORE.SYSTEM.DIHEDRAL>
0

>  <SCORE.SYSTEM.SOLV>
0

>  <SCORE.SYSTEM.norm>
0

>  <SCORE.heavy>
22

>  <SCORE.norm>
-0.35496

>  <RMSD>
33.935

$$$$
lig.pdb
 OpenBabel11021811523D
libRbt.so/2013.1/901 2013/11/27
 22 23  0  0  0  0  0  0  0  0999 V2000
    5.7605  -17.0424   -5.1039 C   0  0  1  0  0  0  0  0  0  0  0  0
    6.9145  -15.4704   -3.5401 C   0  0  1  0  0  0  0  0  0  0  0  0
    8.3888  -16.1722   -3.6929 C   0  0  1  0  0  0  0  0  0  0  0  0
    9.4908  -15.0887   -3.2382 C   0  0  2  0  0  0  0  0  0  0  0  0
    4.3771  -17.7619   -5.4397 C   0  0  1  0  0  0  0  0  0  0  0  0
    4.1418  -18.9878   -4.4737 C   0  0  2  0  0  0  0  0  0  0  0  0
    5.3256  -20.0494   -4.7059 C   0  0  1  0  0  0  0  0  0  0  0  0
    6.7517  -19.3905   -4.3099 C   0  0  1  0  0  0  0  0  0  0  0  0
    7.9582  -20.3524   -4.4929 C   0  0  0  0  0  0  0  0  0  0  0  0
    9.3984  -13.8475   -4.2544 C   0  0  1  0  0  0  0  0  0  0  0  0
    7.9343  -13.1941   -4.0874 C   0  0  0  0  0  0  0  0  0  0  0  0
    6.8063  -14.2423   -4.4755 C   0  0  2  0  0  0  0  0  0  0  0  0
    5.1680  -21.2345   -3.8561 F   0  0  0  0  0  0  0  0  0  0  0  0
    3.3005  -16.6747   -5.3032 N   0  0  0  0  0  0  0  0  0  0  0  0
    9.2014  -19.8197   -4.0702 N   0  0  0  0  0  0  0  0  0  0  0  0
   10.3918  -12.7919   -3.8796 N   0  0  0  0  0  0  0  0  0  0  0  0
    5.4740  -13.6680   -4.3130 N   0  0  0  0  0  0  0  0  0  0  0  0
    5.8661  -16.3238   -3.9398 O   0  0  0  0  0  0  0  0  0  0  0  0
    8.4443  -17.3433   -2.7645 O   0  0  0  0  0  0  0  0  0  0  0  0
   10.7421  -15.6744   -3.3664 O   0  0  0  0  0  0  0  0  0  0  0  0
    3.1152  -19.4820   -4.7690 O   0  0  0  0  0  0  0  0  0  0  0  0
    6.9119  -18.0953   -5.1904 O   0  0  0  0  0  0  0  0  0  0  0  0
  1  5  1  0  0  0  0
  1 18  1  1  0  0  0
  2 18  1  6  0  0  0
  2  3  1  0  0  0  0
  2 12  1  0  0  0  0
  3 19  1  1  0  0  0
  3  4  1  0  0  0  0
  4 20  1  6  0  0  0
  4 10  1  0  0  0  0
  5  6  1  0  0  0  0
  5 14  1  1  0  0  0
  6 21  1  6  0  0  0
  7 13  1  1  0  0  0
  7  6  1  0  0  0  0
  8  9  1  6  0  0  0
  8  7  1  0  0  0  0
 10 16  1  1  0  0  0
 11 10  1  0  0  0  0
 12 17  1  1  0  0  0
 12 11  1  0  0  0  0
 15  9  1  0  0  0  0
 22  8  1  0  0  0  0
 22  1  1  0  0  0  0
M  END
>  <CHROM.1>
-170.50321032,-49.86445326,-176.17075784,6.88424676,-17.02797424,-4.22322307
2.23259197,0.21756226,3.11994265

>  <Name>
lig.pdb

>  <RI>
0

>  <Rbt.Current_Directory>
/home/itssahil/PROJECTS/Mol_Feturizer/New_Systems/rnas/5bxk

>  <Rbt.Executable>
rbdock ($Id: //depot/dev/client3/rdock/2013.1/src/exe/rbdock.cxx#4 $)

>  <Rbt.Library>
libRbt.so (2013.1, Build901 2013/11/27)

>  <Rbt.Parameter_File>
/export/apps/rDock/src/rDock_2013.1_src/data/scripts/dock_solv.prm

>  <Rbt.Receptor>
prm/blind_docking_40.prm

>  <SCORE>
-7.27152

>  <SCORE.INTER>
-4.91925

>  <SCORE.INTER.CONST>
1

>  <SCORE.INTER.POLAR>
0

>  <SCORE.INTER.ROT>
3

>  <SCORE.INTER.SOLV>
18.1062

>  <SCORE.INTER.VDW>
-14.9149

>  <SCORE.INTER.norm>
-0.223602

>  <SCORE.INTRA>
-2.35227

>  <SCORE.INTRA.DIHEDRAL>
-6.07652

>  <SCORE.INTRA.DIHEDRAL.0>
7.18044

>  <SCORE.INTRA.POLAR>
0

>  <SCORE.INTRA.POLAR.0>
0

>  <SCORE.INTRA.REPUL>
0

>  <SCORE.INTRA.REPUL.0>
0

>  <SCORE.INTRA.SOLV>
1.6874

>  <SCORE.INTRA.SOLV.lig_0>
-72.0615

>  <SCORE.INTRA.VDW>
-0.15771

>  <SCORE.INTRA.VDW.0>
-1.54792

>  <SCORE.INTRA.norm>
-0.106921

>  <SCORE.RESTR>
0

>  <SCORE.RESTR.CAVITY>
0

>  <SCORE.RESTR.norm>
0

>  <SCORE.SYSTEM>
0

>  <SCORE.SYSTEM.CONST>
0

>  <SCORE.SYSTEM.DIHEDRAL>
0

>  <SCORE.SYSTEM.SOLV>
0

>  <SCORE.SYSTEM.norm>
0

>  <SCORE.heavy>
22

>  <SCORE.norm>
-0.330523

>  <RMSD>
33.947

$$$$
lig.pdb
 OpenBabel11021811523D
libRbt.so/2013.1/901 2013/11/27
 22 23  0  0  0  0  0  0  0  0999 V2000
    8.8146  -15.9589   -4.6281 C   0  0  1  0  0  0  0  0  0  0  0  0
    8.9762  -18.1468   -3.4300 C   0  0  1  0  0  0  0  0  0  0  0  0
    7.5491  -18.7256   -3.9937 C   0  0  1  0  0  0  0  0  0  0  0  0
    7.5868  -20.3298   -3.8519 C   0  0  2  0  0  0  0  0  0  0  0  0
    9.1545  -14.4023   -4.5536 C   0  0  1  0  0  0  0  0  0  0  0  0
    8.1471  -13.6609   -3.5909 C   0  0  2  0  0  0  0  0  0  0  0  0
    6.6646  -13.8198   -4.1904 C   0  0  1  0  0  0  0  0  0  0  0  0
    6.2398  -15.3829   -4.2215 C   0  0  1  0  0  0  0  0  0  0  0  0
    4.8108  -15.6323   -4.7784 C   0  0  0  0  0  0  0  0  0  0  0  0
    8.7739  -20.8716   -4.7896 C   0  0  1  0  0  0  0  0  0  0  0  0
   10.1554  -20.2713   -4.2156 C   0  0  0  0  0  0  0  0  0  0  0  0
   10.1480  -18.6848   -4.2857 C   0  0  2  0  0  0  0  0  0  0  0  0
    5.6662  -13.1370   -3.3607 F   0  0  0  0  0  0  0  0  0  0  0  0
   10.6123  -14.3186   -4.0768 N   0  0  0  0  0  0  0  0  0  0  0  0
    4.5910  -15.1159   -6.0797 N   0  0  0  0  0  0  0  0  0  0  0  0
    8.8740  -22.3624   -4.6946 N   0  0  0  0  0  0  0  0  0  0  0  0
   11.3878  -18.1274   -3.7536 N   0  0  0  0  0  0  0  0  0  0  0  0
    9.0678  -16.7437   -3.5315 O   0  0  0  0  0  0  0  0  0  0  0  0
    6.4547  -18.1852   -3.1295 O   0  0  0  0  0  0  0  0  0  0  0  0
    6.3827  -20.8280   -4.3288 O   0  0  0  0  0  0  0  0  0  0  0  0
    8.4396  -12.5209   -3.5787 O   0  0  0  0  0  0  0  0  0  0  0  0
    7.3282  -16.1307   -5.0787 O   0  0  0  0  0  0  0  0  0  0  0  0
  1  5  1  0  0  0  0
  1 18  1  1  0  0  0
  2 18  1  6  0  0  0
  2  3  1  0  0  0  0
  2 12  1  0  0  0  0
  3 19  1  1  0  0  0
  3  4  1  0  0  0  0
  4 20  1  6  0  0  0
  4 10  1  0  0  0  0
  5  6  1  0  0  0  0
  5 14  1  1  0  0  0
  6 21  1  6  0  0  0
  7 13  1  1  0  0  0
  7  6  1  0  0  0  0
  8  9  1  6  0  0  0
  8  7  1  0  0  0  0
 10 16  1  1  0  0  0
 11 10  1  0  0  0  0
 12 17  1  1  0  0  0
 12 11  1  0  0  0  0
 15  9  1  0  0  0  0
 22  8  1  0  0  0  0
 22  1  1  0  0  0  0
M  END
>  <CHROM.1>
-172.79073228,-49.92058885,56.52101355,7.93365523,-16.90610680,-4.16797795
-1.82176344,0.12172643,-3.09229516

>  <Name>
lig.pdb

>  <RI>
0

>  <Rbt.Current_Directory>
/home/itssahil/PROJECTS/Mol_Feturizer/New_Systems/rnas/5bxk

>  <Rbt.Executable>
rbdock ($Id: //depot/dev/client3/rdock/2013.1/src/exe/rbdock.cxx#4 $)

>  <Rbt.Library>
libRbt.so (2013.1, Build901 2013/11/27)

>  <Rbt.Parameter_File>
/export/apps/rDock/src/rDock_2013.1_src/data/scripts/dock_solv.prm

>  <Rbt.Receptor>
prm/blind_docking_80.prm

>  <SCORE>
-6.98296

>  <SCORE.INTER>
-4.36629

>  <SCORE.INTER.CONST>
1

>  <SCORE.INTER.POLAR>
0

>  <SCORE.INTER.ROT>
3

>  <SCORE.INTER.SOLV>
17.9366

>  <SCORE.INTER.VDW>
-14.4897

>  <SCORE.INTER.norm>
-0.198468

>  <SCORE.INTRA>
-2.61783

>  <SCORE.INTRA.DIHEDRAL>
-6.26827

>  <SCORE.INTRA.DIHEDRAL.0>
7.18044

>  <SCORE.INTRA.POLAR>
0

>  <SCORE.INTRA.POLAR.0>
0

>  <SCORE.INTRA.REPUL>
0

>  <SCORE.INTRA.REPUL.0>
0

>  <SCORE.INTRA.SOLV>
1.00624

>  <SCORE.INTRA.SOLV.lig_0>
-72.0615

>  <SCORE.INTRA.VDW>
0.0131929

>  <SCORE.INTRA.VDW.0>
-1.54792

>  <SCORE.INTRA.norm>
-0.118992

>  <SCORE.RESTR>
0.00116395

>  <SCORE.RESTR.CAVITY>
0.00116395

>  <SCORE.RESTR.norm>
5.29067e-05

>  <SCORE.SYSTEM>
0

>  <SCORE.SYSTEM.CONST>
0

>  <SCORE.SYSTEM.DIHEDRAL>
0

>  <SCORE.SYSTEM.SOLV>
0

>  <SCORE.SYSTEM.norm>
0

>  <SCORE.heavy>
22

>  <SCORE.norm>
-0.317407

>  <RMSD>
33.947

$$$$
lig.pdb
 OpenBabel11021811523D
libRbt.so/2013.1/901 2013/11/27
 22 23  0  0  0  0  0  0  0  0999 V2000
    8.2486  -16.4076   -3.1872 C   0  0  1  0  0  0  0  0  0  0  0  0
    6.9997  -18.3728   -4.0966 C   0  0  1  0  0  0  0  0  0  0  0  0
    6.9603  -19.0958   -2.6253 C   0  0  1  0  0  0  0  0  0  0  0  0
    6.5366  -20.6334   -2.8520 C   0  0  2  0  0  0  0  0  0  0  0  0
    8.4489  -14.8277   -3.2764 C   0  0  1  0  0  0  0  0  0  0  0  0
    9.1764  -14.4369   -4.6215 C   0  0  2  0  0  0  0  0  0  0  0  0
   10.6284  -15.1253   -4.6299 C   0  0  1  0  0  0  0  0  0  0  0  0
   10.4813  -16.7386   -4.6126 C   0  0  1  0  0  0  0  0  0  0  0  0
   11.8405  -17.4914   -4.6305 C   0  0  0  0  0  0  0  0  0  0  0  0
    5.0552  -20.6413   -3.4746 C   0  0  1  0  0  0  0  0  0  0  0  0
    5.1302  -19.9107   -4.9096 C   0  0  0  0  0  0  0  0  0  0  0  0
    5.5950  -18.4011   -4.7452 C   0  0  2  0  0  0  0  0  0  0  0  0
   11.3814  -14.7923   -5.8438 F   0  0  0  0  0  0  0  0  0  0  0  0
    7.0414  -14.2240   -3.1578 N   0  0  0  0  0  0  0  0  0  0  0  0
   11.7337  -18.8967   -4.4821 N   0  0  0  0  0  0  0  0  0  0  0  0
    4.6022  -22.0462   -3.7243 N   0  0  0  0  0  0  0  0  0  0  0  0
    5.6827  -17.7322   -6.0399 N   0  0  0  0  0  0  0  0  0  0  0  0
    7.3348  -17.0057   -4.0178 O   0  0  0  0  0  0  0  0  0  0  0  0
    8.3391  -19.0500   -2.0480 O   0  0  0  0  0  0  0  0  0  0  0  0
    6.4990  -21.2524   -1.6107 O   0  0  0  0  0  0  0  0  0  0  0  0
    9.3027  -13.2667   -4.6312 O   0  0  0  0  0  0  0  0  0  0  0  0
    9.6406  -17.1027   -3.3324 O   0  0  0  0  0  0  0  0  0  0  0  0
  1  5  1  0  0  0  0
  1 18  1  6  0  0  0
  2 18  1  1  0  0  0
  2  3  1  0  0  0  0
  2 12  1  0  0  0  0
  3 19  1  6  0  0  0
  3  4  1  0  0  0  0
  4 20  1  1  0  0  0
  4 10  1  0  0  0  0
  5  6  1  0  0  0  0
  5 14  1  6  0  0  0
  6 21  1  1  0  0  0
  7 13  1  6  0  0  0
  7  6  1  0  0  0  0
  8  9  1  1  0  0  0
  8  7  1  0  0  0  0
 10 16  1  6  0  0  0
 11 10  1  0  0  0  0
 12 17  1  6  0  0  0
 12 11  1  0  0  0  0
 15  9  1  0  0  0  0
 22  8  1  0  0  0  0
 22  1  1  0  0  0  0
M  END
>  <CHROM.1>
-179.61784447,38.45164819,174.05379530,8.09638317,-17.56875695,-3.94280435
0.88861952,-0.00073813,-0.22737340

>  <Name>
lig.pdb

>  <RI>
0

>  <Rbt.Current_Directory>
/home/itssahil/PROJECTS/Mol_Feturizer/New_Systems/rnas/5bxk

>  <Rbt.Executable>
rbdock ($Id: //depot/dev/client3/rdock/2013.1/src/exe/rbdock.cxx#4 $)

>  <Rbt.Library>
libRbt.so (2013.1, Build901 2013/11/27)

>  <Rbt.Parameter_File>
/export/apps/rDock/src/rDock_2013.1_src/data/scripts/dock_solv.prm

>  <Rbt.Receptor>
prm/blind_docking_80.prm

>  <SCORE>
-6.67516

>  <SCORE.INTER>
-3.94981

>  <SCORE.INTER.CONST>
1

>  <SCORE.INTER.POLAR>
0

>  <SCORE.INTER.ROT>
3

>  <SCORE.INTER.SOLV>
17.7053

>  <SCORE.INTER.VDW>
-14.135

>  <SCORE.INTER.norm>
-0.179537

>  <SCORE.INTRA>
-2.72535

>  <SCORE.INTRA.DIHEDRAL>
-4.8603

>  <SCORE.INTRA.DIHEDRAL.0>
7.18044

>  <SCORE.INTRA.POLAR>
0

>  <SCORE.INTRA.POLAR.0>
0

>  <SCORE.INTRA.REPUL>
0

>  <SCORE.INTRA.REPUL.0>
0

>  <SCORE.INTRA.SOLV>
-1.48423

>  <SCORE.INTRA.SOLV.lig_0>
-72.0615

>  <SCORE.INTRA.VDW>
0.446913

>  <SCORE.INTRA.VDW.0>
-1.54792

>  <SCORE.INTRA.norm>
-0.12388

>  <SCORE.RESTR>
0

>  <SCORE.RESTR.CAVITY>
0

>  <SCORE.RESTR.norm>
0

>  <SCORE.SYSTEM>
0

>  <SCORE.SYSTEM.CONST>
0

>  <SCORE.SYSTEM.DIHEDRAL>
0

>  <SCORE.SYSTEM.SOLV>
0

>  <SCORE.SYSTEM.norm>
0

>  <SCORE.heavy>
22

>  <SCORE.norm>
-0.303417

>  <RMSD>
33.949

$$$$
lig.pdb
 OpenBabel11021811523D
libRbt.so/2013.1/901 2013/11/27
 22 23  0  0  0  0  0  0  0  0999 V2000
    8.2172  -16.3739   -3.1796 C   0  0  1  0  0  0  0  0  0  0  0  0
    6.9745  -18.3392   -4.0970 C   0  0  1  0  0  0  0  0  0  0  0  0
    6.9147  -19.0665   -2.6285 C   0  0  1  0  0  0  0  0  0  0  0  0
    6.5021  -20.6054   -2.8663 C   0  0  2  0  0  0  0  0  0  0  0  0
    8.4351  -14.7973   -3.2841 C   0  0  1  0  0  0  0  0  0  0  0  0
    9.1743  -14.4283   -4.6290 C   0  0  2  0  0  0  0  0  0  0  0  0
   10.6188  -15.1323   -4.6219 C   0  0  1  0  0  0  0  0  0  0  0  0
   10.4541  -16.7437   -4.5888 C   0  0  1  0  0  0  0  0  0  0  0  0
   11.8052  -17.5112   -4.5910 C   0  0  0  0  0  0  0  0  0  0  0  0
    5.0311  -20.6187   -3.5128 C   0  0  1  0  0  0  0  0  0  0  0  0
    5.1259  -19.8838   -4.9444 C   0  0  0  0  0  0  0  0  0  0  0  0
    5.5807  -18.3725   -4.7685 C   0  0  2  0  0  0  0  0  0  0  0  0
   11.3821  -14.8202   -5.8350 F   0  0  0  0  0  0  0  0  0  0  0  0
    7.0336  -14.1772   -3.1797 N   0  0  0  0  0  0  0  0  0  0  0  0
   11.6813  -18.9156   -4.4472 N   0  0  0  0  0  0  0  0  0  0  0  0
    4.5891  -22.0251   -3.7736 N   0  0  0  0  0  0  0  0  0  0  0  0
    5.6861  -17.6996   -6.0597 N   0  0  0  0  0  0  0  0  0  0  0  0
    7.3017  -16.9708   -4.0091 O   0  0  0  0  0  0  0  0  0  0  0  0
    8.2837  -19.0158   -2.0288 O   0  0  0  0  0  0  0  0  0  0  0  0
    6.4473  -21.2280   -1.6274 O   0  0  0  0  0  0  0  0  0  0  0  0
    9.3132  -13.2597   -4.6501 O   0  0  0  0  0  0  0  0  0  0  0  0
    9.6024  -17.0853   -3.3096 O   0  0  0  0  0  0  0  0  0  0  0  0
  1  5  1  0  0  0  0
  1 18  1  6  0  0  0
  2 18  1  1  0  0  0
  2  3  1  0  0  0  0
  2 12  1  0  0  0  0
  3 19  1  6  0  0  0
  3  4  1  0  0  0  0
  4 20  1  1  0  0  0
  4 10  1  0  0  0  0
  5  6  1  0  0  0  0
  5 14  1  6  0  0  0
  6 21  1  1  0  0  0
  7 13  1  6  0  0  0
  7  6  1  0  0  0  0
  8  9  1  1  0  0  0
  8  7  1  0  0  0  0
 10 16  1  6  0  0  0
 11 10  1  0  0  0  0
 12 17  1  6  0  0  0
 12 11  1  0  0  0  0
 15  9  1  0  0  0  0
 22  8  1  0  0  0  0
 22  1  1  0  0  0  0
M  END
>  <CHROM.1>
178.77548651,39.80020891,174.88446362,8.07349725,-17.55204580,-3.94607875
0.88677923,-0.00676678,-0.22715757

>  <Name>
lig.pdb

>  <RI>
0

>  <Rbt.Current_Directory>
/home/itssahil/PROJECTS/Mol_Feturizer/New_Systems/rnas/5bxk

>  <Rbt.Executable>
rbdock ($Id: //depot/dev/client3/rdock/2013.1/src/exe/rbdock.cxx#4 $)

>  <Rbt.Library>
libRbt.so (2013.1, Build901 2013/11/27)

>  <Rbt.Parameter_File>
/export/apps/rDock/src/rDock_2013.1_src/data/scripts/dock_solv.prm

>  <Rbt.Receptor>
prm/blind_docking_80.prm

>  <SCORE>
-6.65313

>  <SCORE.INTER>
-3.78692

>  <SCORE.INTER.CONST>
1

>  <SCORE.INTER.POLAR>
0

>  <SCORE.INTER.ROT>
3

>  <SCORE.INTER.SOLV>
18.0169

>  <SCORE.INTER.VDW>
-14.1302

>  <SCORE.INTER.norm>
-0.172133

>  <SCORE.INTRA>
-2.86621

>  <SCORE.INTRA.DIHEDRAL>
-5.11216

>  <SCORE.INTRA.DIHEDRAL.0>
7.18044

>  <SCORE.INTRA.POLAR>
0

>  <SCORE.INTRA.POLAR.0>
0

>  <SCORE.INTRA.REPUL>
0

>  <SCORE.INTRA.REPUL.0>
0

>  <SCORE.INTRA.SOLV>
-1.4868

>  <SCORE.INTRA.SOLV.lig_0>
-72.0615

>  <SCORE.INTRA.VDW>
0.433267

>  <SCORE.INTRA.VDW.0>
-1.54792

>  <SCORE.INTRA.norm>
-0.130282

>  <SCORE.RESTR>
0

>  <SCORE.RESTR.CAVITY>
0

>  <SCORE.RESTR.norm>
0

>  <SCORE.SYSTEM>
0

>  <SCORE.SYSTEM.CONST>
0

>  <SCORE.SYSTEM.DIHEDRAL>
0

>  <SCORE.SYSTEM.SOLV>
0

>  <SCORE.SYSTEM.norm>
0

>  <SCORE.heavy>
22

>  <SCORE.norm>
-0.302415

>  <RMSD>
33.955

$$$$
lig.pdb
 OpenBabel11021811523D
libRbt.so/2013.1/901 2013/11/27
 22 23  0  0  0  0  0  0  0  0999 V2000
    4.8711  -14.2630   -4.5192 C   0  0  1  0  0  0  0  0  0  0  0  0
    7.2467  -14.9357   -4.1288 C   0  0  1  0  0  0  0  0  0  0  0  0
    8.0382  -13.5801   -3.6543 C   0  0  1  0  0  0  0  0  0  0  0  0
    9.5931  -13.7703   -4.0299 C   0  0  2  0  0  0  0  0  0  0  0  0
    3.4552  -14.0582   -3.8139 C   0  0  1  0  0  0  0  0  0  0  0  0
    2.7036  -15.4387   -3.6695 C   0  0  2  0  0  0  0  0  0  0  0  0
    2.4470  -16.0312   -5.1411 C   0  0  1  0  0  0  0  0  0  0  0  0
    3.8594  -16.3261   -5.8781 C   0  0  1  0  0  0  0  0  0  0  0  0
    3.7083  -16.9139   -7.3085 C   0  0  0  0  0  0  0  0  0  0  0  0
   10.1473  -15.0186   -3.1834 C   0  0  1  0  0  0  0  0  0  0  0  0
    9.3376  -16.3266   -3.6650 C   0  0  0  0  0  0  0  0  0  0  0  0
    7.7867  -16.1672   -3.3628 C   0  0  2  0  0  0  0  0  0  0  0  0
    1.7303  -17.3102   -5.0951 F   0  0  0  0  0  0  0  0  0  0  0  0
    3.7577  -13.3951   -2.4617 N   0  0  0  0  0  0  0  0  0  0  0  0
    4.9225  -17.3528   -7.8926 N   0  0  0  0  0  0  0  0  0  0  0  0
   11.5913  -15.2606   -3.4962 N   0  0  0  0  0  0  0  0  0  0  0  0
    7.0391  -17.3390   -3.8091 N   0  0  0  0  0  0  0  0  0  0  0  0
    5.8713  -14.8932   -3.8227 O   0  0  0  0  0  0  0  0  0  0  0  0
    7.4872  -12.4254   -4.4284 O   0  0  0  0  0  0  0  0  0  0  0  0
   10.2708  -12.6275   -3.6296 O   0  0  0  0  0  0  0  0  0  0  0  0
    1.6682  -15.2280   -3.1510 O   0  0  0  0  0  0  0  0  0  0  0  0
    4.6523  -14.9662   -5.8974 O   0  0  0  0  0  0  0  0  0  0  0  0
  1  5  1  0  0  0  0
  1 18  1  1  0  0  0
  2 18  1  1  0  0  0
  2  3  1  0  0  0  0
  2 12  1  0  0  0  0
  3 19  1  6  0  0  0
  3  4  1  0  0  0  0
  4 20  1  1  0  0  0
  4 10  1  0  0  0  0
  5  6  1  0  0  0  0
  5 14  1  1  0  0  0
  6 21  1  6  0  0  0
  7 13  1  1  0  0  0
  7  6  1  0  0  0  0
  8  9  1  6  0  0  0
  8  7  1  0  0  0  0
 10 16  1  6  0  0  0
 11 10  1  0  0  0  0
 12 17  1  6  0  0  0
 12 11  1  0  0  0  0
 15  9  1  0  0  0  0
 22  8  1  0  0  0  0
 22  1  1  0  0  0  0
M  END
>  <CHROM.1>
-165.74437236,80.79869171,-171.51735366,5.93952043,-15.16959575,-4.37861727
2.83945600,0.01175301,-2.48187434

>  <Name>
lig.pdb

>  <RI>
0

>  <Rbt.Current_Directory>
/home/itssahil/PROJECTS/Mol_Feturizer/New_Systems/rnas/5bxk

>  <Rbt.Executable>
rbdock ($Id: //depot/dev/client3/rdock/2013.1/src/exe/rbdock.cxx#4 $)

>  <Rbt.Library>
libRbt.so (2013.1, Build901 2013/11/27)

>  <Rbt.Parameter_File>
/export/apps/rDock/src/rDock_2013.1_src/data/scripts/dock_solv.prm

>  <Rbt.Receptor>
prm/blind_docking_60.prm

>  <SCORE>
-8.08215

>  <SCORE.INTER>
-5.4161

>  <SCORE.INTER.CONST>
1

>  <SCORE.INTER.POLAR>
0

>  <SCORE.INTER.ROT>
3

>  <SCORE.INTER.SOLV>
21.3325

>  <SCORE.INTER.VDW>
-16.3216

>  <SCORE.INTER.norm>
-0.246186

>  <SCORE.INTRA>
-2.66606

>  <SCORE.INTRA.DIHEDRAL>
-3.93396

>  <SCORE.INTRA.DIHEDRAL.0>
7.18044

>  <SCORE.INTRA.POLAR>
0

>  <SCORE.INTRA.POLAR.0>
0

>  <SCORE.INTRA.REPUL>
0

>  <SCORE.INTRA.REPUL.0>
0

>  <SCORE.INTRA.SOLV>
-1.20907

>  <SCORE.INTRA.SOLV.lig_0>
-72.0615

>  <SCORE.INTRA.VDW>
-0.0945438

>  <SCORE.INTRA.VDW.0>
-1.54792

>  <SCORE.INTRA.norm>
-0.121184

>  <SCORE.RESTR>
0

>  <SCORE.RESTR.CAVITY>
0

>  <SCORE.RESTR.norm>
0

>  <SCORE.SYSTEM>
0

>  <SCORE.SYSTEM.CONST>
0

>  <SCORE.SYSTEM.DIHEDRAL>
0

>  <SCORE.SYSTEM.SOLV>
0

>  <SCORE.SYSTEM.norm>
0

>  <SCORE.heavy>
22

>  <SCORE.norm>
-0.367371

>  <RMSD>
33.959

$$$$
lig.pdb
 OpenBabel11021811523D
libRbt.so/2013.1/901 2013/11/27
 22 23  0  0  0  0  0  0  0  0999 V2000
    5.7352  -17.0249   -5.1241 C   0  0  1  0  0  0  0  0  0  0  0  0
    6.8655  -15.4497   -3.5463 C   0  0  1  0  0  0  0  0  0  0  0  0
    8.3441  -16.1455   -3.6835 C   0  0  1  0  0  0  0  0  0  0  0  0
    9.4367  -15.0582   -3.2156 C   0  0  2  0  0  0  0  0  0  0  0  0
    4.3575  -17.7466   -5.4777 C   0  0  1  0  0  0  0  0  0  0  0  0
    4.1121  -18.9735   -4.5154 C   0  0  2  0  0  0  0  0  0  0  0  0
    5.3007  -20.0328   -4.7333 C   0  0  1  0  0  0  0  0  0  0  0  0
    6.7205  -19.3716   -4.3190 C   0  0  1  0  0  0  0  0  0  0  0  0
    7.9309  -20.3314   -4.4874 C   0  0  0  0  0  0  0  0  0  0  0  0
    9.3507  -13.8162   -4.2315 C   0  0  1  0  0  0  0  0  0  0  0  0
    7.8823  -13.1687   -4.0800 C   0  0  0  0  0  0  0  0  0  0  0  0
    6.7627  -14.2210   -4.4815 C   0  0  2  0  0  0  0  0  0  0  0  0
    5.1345  -21.2187   -3.8862 F   0  0  0  0  0  0  0  0  0  0  0  0
    3.2773  -16.6613   -5.3541 N   0  0  0  0  0  0  0  0  0  0  0  0
    9.1719  -19.7873   -4.0729 N   0  0  0  0  0  0  0  0  0  0  0  0
   10.3357  -12.7571   -3.8446 N   0  0  0  0  0  0  0  0  0  0  0  0
    5.4265  -13.6521   -4.3332 N   0  0  0  0  0  0  0  0  0  0  0  0
    5.8249  -16.3067   -3.9585 O   0  0  0  0  0  0  0  0  0  0  0  0
    8.3940  -17.3173   -2.7558 O   0  0  0  0  0  0  0  0  0  0  0  0
   10.6918  -15.6388   -3.3306 O   0  0  0  0  0  0  0  0  0  0  0  0
    3.0902  -19.4693   -4.8239 O   0  0  0  0  0  0  0  0  0  0  0  0
    6.8895  -18.0757   -5.1967 O   0  0  0  0  0  0  0  0  0  0  0  0
  1  5  1  0  0  0  0
  1 18  1  1  0  0  0
  2 18  1  6  0  0  0
  2  3  1  0  0  0  0
  2 12  1  0  0  0  0
  3 19  1  1  0  0  0
  3  4  1  0  0  0  0
  4 20  1  6  0  0  0
  4 10  1  0  0  0  0
  5  6  1  0  0  0  0
  5 14  1  1  0  0  0
  6 21  1  6  0  0  0
  7 13  1  1  0  0  0
  7  6  1  0  0  0  0
  8  9  1  6  0  0  0
  8  7  1  0  0  0  0
 10 16  1  1  0  0  0
 11 10  1  0  0  0  0
 12 17  1  1  0  0  0
 12 11  1  0  0  0  0
 15  9  1  0  0  0  0
 22  8  1  0  0  0  0
 22  1  1  0  0  0  0
M  END
>  <CHROM.1>
-170.36340455,-49.84057578,-177.33329475,6.84665391,-17.00610067,-4.23190243
2.22958086,0.22846439,3.12184994

>  <Name>
lig.pdb

>  <RI>
0

>  <Rbt.Current_Directory>
/home/itssahil/PROJECTS/Mol_Feturizer/New_Systems/rnas/5bxk

>  <Rbt.Executable>
rbdock ($Id: //depot/dev/client3/rdock/2013.1/src/exe/rbdock.cxx#4 $)

>  <Rbt.Library>
libRbt.so (2013.1, Build901 2013/11/27)

>  <Rbt.Parameter_File>
/export/apps/rDock/src/rDock_2013.1_src/data/scripts/dock_solv.prm

>  <Rbt.Receptor>
prm/blind_docking_60.prm

>  <SCORE>
-7.27269

>  <SCORE.INTER>
-4.91714

>  <SCORE.INTER.CONST>
1

>  <SCORE.INTER.POLAR>
0

>  <SCORE.INTER.ROT>
3

>  <SCORE.INTER.SOLV>
18.3307

>  <SCORE.INTER.VDW>
-14.9883

>  <SCORE.INTER.norm>
-0.223507

>  <SCORE.INTRA>
-2.35554

>  <SCORE.INTRA.DIHEDRAL>
-6.08947

>  <SCORE.INTRA.DIHEDRAL.0>
7.18044

>  <SCORE.INTRA.POLAR>
0

>  <SCORE.INTRA.POLAR.0>
0

>  <SCORE.INTRA.REPUL>
0

>  <SCORE.INTRA.REPUL.0>
0

>  <SCORE.INTRA.SOLV>
1.70357

>  <SCORE.INTRA.SOLV.lig_0>
-72.0615

>  <SCORE.INTRA.VDW>
-0.162591

>  <SCORE.INTRA.VDW.0>
-1.54792

>  <SCORE.INTRA.norm>
-0.10707

>  <SCORE.RESTR>
0

>  <SCORE.RESTR.CAVITY>
0

>  <SCORE.RESTR.norm>
0

>  <SCORE.SYSTEM>
0

>  <SCORE.SYSTEM.CONST>
0

>  <SCORE.SYSTEM.DIHEDRAL>
0

>  <SCORE.SYSTEM.SOLV>
0

>  <SCORE.SYSTEM.norm>
0

>  <SCORE.heavy>
22

>  <SCORE.norm>
-0.330577

>  <RMSD>
33.961

$$$$
lig.pdb
 OpenBabel11021811523D
libRbt.so/2013.1/901 2013/11/27
 22 23  0  0  0  0  0  0  0  0999 V2000
    4.7961  -14.2111   -4.4225 C   0  0  1  0  0  0  0  0  0  0  0  0
    7.2013  -14.8185   -4.1150 C   0  0  1  0  0  0  0  0  0  0  0  0
    7.9722  -13.4421   -3.6675 C   0  0  1  0  0  0  0  0  0  0  0  0
    9.5177  -13.5905   -4.0973 C   0  0  2  0  0  0  0  0  0  0  0  0
    3.3728  -14.1342   -3.7067 C   0  0  1  0  0  0  0  0  0  0  0  0
    2.7105  -15.5652   -3.6360 C   0  0  2  0  0  0  0  0  0  0  0  0
    2.4863  -16.0936   -5.1370 C   0  0  1  0  0  0  0  0  0  0  0  0
    3.9117  -16.2587   -5.8893 C   0  0  1  0  0  0  0  0  0  0  0  0
    3.7927  -16.7778   -7.3490 C   0  0  0  0  0  0  0  0  0  0  0  0
   10.1343  -14.8234   -3.2715 C   0  0  1  0  0  0  0  0  0  0  0  0
    9.3436  -16.1527   -3.7254 C   0  0  0  0  0  0  0  0  0  0  0  0
    7.8005  -16.0349   -3.3692 C   0  0  2  0  0  0  0  0  0  0  0  0
    1.8521  -17.4160   -5.1592 F   0  0  0  0  0  0  0  0  0  0  0  0
    3.6378  -13.5263   -2.3211 N   0  0  0  0  0  0  0  0  0  0  0  0
    3.2428  -18.0787   -7.4650 N   0  0  0  0  0  0  0  0  0  0  0  0
   11.5724  -15.0266   -3.6347 N   0  0  0  0  0  0  0  0  0  0  0  0
    7.0695  -17.2265   -3.7899 N   0  0  0  0  0  0  0  0  0  0  0  0
    5.8368  -14.8128   -3.7611 O   0  0  0  0  0  0  0  0  0  0  0  0
    7.3637  -12.3027   -4.4211 O   0  0  0  0  0  0  0  0  0  0  0  0
   10.1780  -12.4299   -3.7201 O   0  0  0  0  0  0  0  0  0  0  0  0
    1.6658  -15.4484   -3.1066 O   0  0  0  0  0  0  0  0  0  0  0  0
    4.6170  -14.8522   -5.8363 O   0  0  0  0  0  0  0  0  0  0  0  0
  1  5  1  0  0  0  0
  1 18  1  1  0  0  0
  2 18  1  1  0  0  0
  2  3  1  0  0  0  0
  2 12  1  0  0  0  0
  3 19  1  6  0  0  0
  3  4  1  0  0  0  0
  4 20  1  1  0  0  0
  4 10  1  0  0  0  0
  5  6  1  0  0  0  0
  5 14  1  1  0  0  0
  6 21  1  6  0  0  0
  7 13  1  1  0  0  0
  7  6  1  0  0  0  0
  8  9  1  6  0  0  0
  8  7  1  0  0  0  0
 10 16  1  6  0  0  0
 11 10  1  0  0  0  0
 12 17  1  6  0  0  0
 12 11  1  0  0  0  0
 15  9  1  0  0  0  0
 22  8  1  0  0  0  0
 22  1  1  0  0  0  0
M  END
>  <CHROM.1>
-169.93704249,80.87191560,-63.15501922,5.84610320,-15.14427796,-4.35978393
2.78996003,-0.00270434,-2.53983050

>  <Name>
lig.pdb

>  <RI>
0

>  <Rbt.Current_Directory>
/home/itssahil/PROJECTS/Mol_Feturizer/New_Systems/rnas/5bxk

>  <Rbt.Executable>
rbdock ($Id: //depot/dev/client3/rdock/2013.1/src/exe/rbdock.cxx#4 $)

>  <Rbt.Library>
libRbt.so (2013.1, Build901 2013/11/27)

>  <Rbt.Parameter_File>
/export/apps/rDock/src/rDock_2013.1_src/data/scripts/dock_solv.prm

>  <Rbt.Receptor>
prm/blind_docking_20.prm

>  <SCORE>
-8.30215

>  <SCORE.INTER>
-5.78911

>  <SCORE.INTER.CONST>
1

>  <SCORE.INTER.POLAR>
0

>  <SCORE.INTER.ROT>
3

>  <SCORE.INTER.SOLV>
18.2458

>  <SCORE.INTER.VDW>
-15.5413

>  <SCORE.INTER.norm>
-0.263141

>  <SCORE.INTRA>
-2.51304

>  <SCORE.INTRA.DIHEDRAL>
-4.59558

>  <SCORE.INTRA.DIHEDRAL.0>
7.18044

>  <SCORE.INTRA.POLAR>
0

>  <SCORE.INTRA.POLAR.0>
0

>  <SCORE.INTRA.REPUL>
0

>  <SCORE.INTRA.REPUL.0>
0

>  <SCORE.INTRA.SOLV>
-0.297202

>  <SCORE.INTRA.SOLV.lig_0>
-72.0615

>  <SCORE.INTRA.VDW>
-0.0666504

>  <SCORE.INTRA.VDW.0>
-1.54792

>  <SCORE.INTRA.norm>
-0.114229

>  <SCORE.RESTR>
0

>  <SCORE.RESTR.CAVITY>
0

>  <SCORE.RESTR.norm>
0

>  <SCORE.SYSTEM>
0

>  <SCORE.SYSTEM.CONST>
0

>  <SCORE.SYSTEM.DIHEDRAL>
0

>  <SCORE.SYSTEM.SOLV>
0

>  <SCORE.SYSTEM.norm>
0

>  <SCORE.heavy>
22

>  <SCORE.norm>
-0.377371

>  <RMSD>
33.971

$$$$
lig.pdb
 OpenBabel11021811523D
libRbt.so/2013.1/901 2013/11/27
 22 23  0  0  0  0  0  0  0  0999 V2000
    8.4599  -15.6376   -3.4977 C   0  0  1  0  0  0  0  0  0  0  0  0
    6.5349  -14.8965   -4.9096 C   0  0  1  0  0  0  0  0  0  0  0  0
    5.6113  -16.2499   -4.8413 C   0  0  1  0  0  0  0  0  0  0  0  0
    4.0864  -15.8104   -5.1178 C   0  0  2  0  0  0  0  0  0  0  0  0
   10.0450  -15.8001   -3.4264 C   0  0  1  0  0  0  0  0  0  0  0  0
   10.5212  -16.9934   -4.3433 C   0  0  2  0  0  0  0  0  0  0  0  0
    9.8555  -18.3493   -3.7951 C   0  0  1  0  0  0  0  0  0  0  0  0
    8.2417  -18.2657   -3.9122 C   0  0  1  0  0  0  0  0  0  0  0  0
    7.5109  -19.5430   -3.4132 C   0  0  0  0  0  0  0  0  0  0  0  0
    3.6447  -14.8197   -3.9323 C   0  0  1  0  0  0  0  0  0  0  0  0
    4.5819  -13.5113   -4.0216 C   0  0  0  0  0  0  0  0  0  0  0  0
    6.1067  -13.8995   -3.8062 C   0  0  2  0  0  0  0  0  0  0  0  0
   10.2669  -19.5152   -4.5845 F   0  0  0  0  0  0  0  0  0  0  0  0
   10.6207  -14.4434   -3.8596 N   0  0  0  0  0  0  0  0  0  0  0  0
    7.8344  -20.7211   -4.1311 N   0  0  0  0  0  0  0  0  0  0  0  0
    2.2344  -14.3600   -4.1354 N   0  0  0  0  0  0  0  0  0  0  0  0
    6.9685  -12.7250   -3.9008 N   0  0  0  0  0  0  0  0  0  0  0  0
    7.8961  -15.1581   -4.6530 O   0  0  0  0  0  0  0  0  0  0  0  0
    6.0580  -17.1726   -5.9301 O   0  0  0  0  0  0  0  0  0  0  0  0
    3.2974  -16.9504   -5.0598 O   0  0  0  0  0  0  0  0  0  0  0  0
   11.6918  -17.0707   -4.2479 O   0  0  0  0  0  0  0  0  0  0  0  0
    7.7943  -16.9941   -3.0991 O   0  0  0  0  0  0  0  0  0  0  0  0
  1  5  1  0  0  0  0
  1 18  1  6  0  0  0
  2 18  1  1  0  0  0
  2  3  1  0  0  0  0
  2 12  1  0  0  0  0
  3 19  1  6  0  0  0
  3  4  1  0  0  0  0
  4 20  1  1  0  0  0
  4 10  1  0  0  0  0
  5  6  1  0  0  0  0
  5 14  1  6  0  0  0
  6 21  1  1  0  0  0
  7 13  1  6  0  0  0
  7  6  1  0  0  0  0
  8  9  1  1  0  0  0
  8  7  1  0  0  0  0
 10 16  1  6  0  0  0
 11 10  1  0  0  0  0
 12 17  1  6  0  0  0
 12 11  1  0  0  0  0
 15  9  1  0  0  0  0
 22  8  1  0  0  0  0
 22  1  1  0  0  0  0
M  END
>  <CHROM.1>
-177.63269517,-63.27094623,-61.30132040,7.31531519,-16.38302292,-4.22978604
-0.49100737,-0.10515026,0.07276267

>  <Name>
lig.pdb

>  <RI>
0

>  <Rbt.Current_Directory>
/home/itssahil/PROJECTS/Mol_Feturizer/New_Systems/rnas/5bxk

>  <Rbt.Executable>
rbdock ($Id: //depot/dev/client3/rdock/2013.1/src/exe/rbdock.cxx#4 $)

>  <Rbt.Library>
libRbt.so (2013.1, Build901 2013/11/27)

>  <Rbt.Parameter_File>
/export/apps/rDock/src/rDock_2013.1_src/data/scripts/dock_solv.prm

>  <Rbt.Receptor>
prm/blind_docking_60.prm

>  <SCORE>
-7.7427

>  <SCORE.INTER>
-4.65834

>  <SCORE.INTER.CONST>
1

>  <SCORE.INTER.POLAR>
0

>  <SCORE.INTER.ROT>
3

>  <SCORE.INTER.SOLV>
17.1035

>  <SCORE.INTER.VDW>
-14.4067

>  <SCORE.INTER.norm>
-0.211743

>  <SCORE.INTRA>
-3.08436

>  <SCORE.INTRA.DIHEDRAL>
-6.95991

>  <SCORE.INTRA.DIHEDRAL.0>
7.18044

>  <SCORE.INTRA.POLAR>
0

>  <SCORE.INTRA.POLAR.0>
0

>  <SCORE.INTRA.REPUL>
0

>  <SCORE.INTRA.REPUL.0>
0

>  <SCORE.INTRA.SOLV>
0.608617

>  <SCORE.INTRA.SOLV.lig_0>
-72.0615

>  <SCORE.INTRA.VDW>
0.0912816

>  <SCORE.INTRA.VDW.0>
-1.54792

>  <SCORE.INTRA.norm>
-0.140198

>  <SCORE.RESTR>
0

>  <SCORE.RESTR.CAVITY>
0

>  <SCORE.RESTR.norm>
0

>  <SCORE.SYSTEM>
0

>  <SCORE.SYSTEM.CONST>
0

>  <SCORE.SYSTEM.DIHEDRAL>
0

>  <SCORE.SYSTEM.SOLV>
0

>  <SCORE.SYSTEM.norm>
0

>  <SCORE.heavy>
22

>  <SCORE.norm>
-0.351941

>  <RMSD>
33.977

$$$$
lig.pdb
 OpenBabel11021811523D
libRbt.so/2013.1/901 2013/11/27
 22 23  0  0  0  0  0  0  0  0999 V2000
    8.2426  -16.4762   -3.2300 C   0  0  1  0  0  0  0  0  0  0  0  0
    6.9738  -18.4259   -4.1449 C   0  0  1  0  0  0  0  0  0  0  0  0
    6.9476  -19.1451   -2.6713 C   0  0  1  0  0  0  0  0  0  0  0  0
    6.4896  -20.6745   -2.8866 C   0  0  2  0  0  0  0  0  0  0  0  0
    8.4377  -14.8945   -3.2950 C   0  0  1  0  0  0  0  0  0  0  0  0
    9.1733  -14.4816   -4.6290 C   0  0  2  0  0  0  0  0  0  0  0  0
   10.6279  -15.1646   -4.6369 C   0  0  1  0  0  0  0  0  0  0  0  0
   10.4866  -16.7786   -4.6439 C   0  0  1  0  0  0  0  0  0  0  0  0
   11.8487  -17.5261   -4.6628 C   0  0  0  0  0  0  0  0  0  0  0  0
    4.9971  -20.6545   -3.4815 C   0  0  1  0  0  0  0  0  0  0  0  0
    5.0597  -19.9285   -4.9193 C   0  0  0  0  0  0  0  0  0  0  0  0
    5.5569  -18.4280   -4.7672 C   0  0  2  0  0  0  0  0  0  0  0  0
   11.3883  -14.8114   -5.8405 F   0  0  0  0  0  0  0  0  0  0  0  0
    7.0272  -14.2975   -3.1777 N   0  0  0  0  0  0  0  0  0  0  0  0
   11.7477  -18.9314   -4.5108 N   0  0  0  0  0  0  0  0  0  0  0  0
    4.5121  -22.0508   -3.7193 N   0  0  0  0  0  0  0  0  0  0  0  0
    5.6336  -17.7636   -6.0649 N   0  0  0  0  0  0  0  0  0  0  0  0
    7.3370  -17.0656   -4.0756 O   0  0  0  0  0  0  0  0  0  0  0  0
    8.3375  -19.1252   -2.1199 O   0  0  0  0  0  0  0  0  0  0  0  0
    6.4630  -21.2901   -1.6433 O   0  0  0  0  0  0  0  0  0  0  0  0
    9.2953  -13.3110   -4.6210 O   0  0  0  0  0  0  0  0  0  0  0  0
    9.6381  -17.1641   -3.3751 O   0  0  0  0  0  0  0  0  0  0  0  0
  1  5  1  0  0  0  0
  1 18  1  6  0  0  0
  2 18  1  1  0  0  0
  2  3  1  0  0  0  0
  2 12  1  0  0  0  0
  3 19  1  6  0  0  0
  3  4  1  0  0  0  0
  4 20  1  1  0  0  0
  4 10  1  0  0  0  0
  5  6  1  0  0  0  0
  5 14  1  6  0  0  0
  6 21  1  1  0  0  0
  7 13  1  6  0  0  0
  7  6  1  0  0  0  0
  8  9  1  1  0  0  0
  8  7  1  0  0  0  0
 10 16  1  6  0  0  0
 11 10  1  0  0  0  0
 12 17  1  6  0  0  0
 12 11  1  0  0  0  0
 15  9  1  0  0  0  0
 22  8  1  0  0  0  0
 22  1  1  0  0  0  0
M  END
>  <CHROM.1>
-177.21071420,35.84966119,172.95473340,8.07726321,-17.61134748,-3.96850565
0.87667004,-0.00376204,-0.22913796

>  <Name>
lig.pdb

>  <RI>
0

>  <Rbt.Current_Directory>
/home/itssahil/PROJECTS/Mol_Feturizer/New_Systems/rnas/5bxk

>  <Rbt.Executable>
rbdock ($Id: //depot/dev/client3/rdock/2013.1/src/exe/rbdock.cxx#4 $)

>  <Rbt.Library>
libRbt.so (2013.1, Build901 2013/11/27)

>  <Rbt.Parameter_File>
/export/apps/rDock/src/rDock_2013.1_src/data/scripts/dock_solv.prm

>  <Rbt.Receptor>
prm/blind_docking_80.prm

>  <SCORE>
-6.63109

>  <SCORE.INTER>
-4.24969

>  <SCORE.INTER.CONST>
1

>  <SCORE.INTER.POLAR>
0

>  <SCORE.INTER.ROT>
3

>  <SCORE.INTER.SOLV>
17.3627

>  <SCORE.INTER.VDW>
-14.2207

>  <SCORE.INTER.norm>
-0.193168

>  <SCORE.INTRA>
-2.3814

>  <SCORE.INTRA.DIHEDRAL>
-4.31753

>  <SCORE.INTRA.DIHEDRAL.0>
7.18044

>  <SCORE.INTRA.POLAR>
0

>  <SCORE.INTRA.POLAR.0>
0

>  <SCORE.INTRA.REPUL>
0

>  <SCORE.INTRA.REPUL.0>
0

>  <SCORE.INTRA.SOLV>
-1.4553

>  <SCORE.INTRA.SOLV.lig_0>
-72.0615

>  <SCORE.INTRA.VDW>
0.50502

>  <SCORE.INTRA.VDW.0>
-1.54792

>  <SCORE.INTRA.norm>
-0.108245

>  <SCORE.RESTR>
0

>  <SCORE.RESTR.CAVITY>
0

>  <SCORE.RESTR.norm>
0

>  <SCORE.SYSTEM>
0

>  <SCORE.SYSTEM.CONST>
0

>  <SCORE.SYSTEM.DIHEDRAL>
0

>  <SCORE.SYSTEM.SOLV>
0

>  <SCORE.SYSTEM.norm>
0

>  <SCORE.heavy>
22

>  <SCORE.norm>
-0.301413

>  <RMSD>
33.991

$$$$
lig.pdb
 OpenBabel11021811523D
libRbt.so/2013.1/901 2013/11/27
 22 23  0  0  0  0  0  0  0  0999 V2000
    8.2083  -15.5983   -4.4958 C   0  0  1  0  0  0  0  0  0  0  0  0
    8.7926  -17.6791   -3.2400 C   0  0  1  0  0  0  0  0  0  0  0  0
    7.6657  -18.6947   -3.8629 C   0  0  1  0  0  0  0  0  0  0  0  0
    8.2262  -20.1966   -3.7040 C   0  0  2  0  0  0  0  0  0  0  0  0
    7.7928  -14.0637   -4.3667 C   0  0  1  0  0  0  0  0  0  0  0  0
    6.3172  -13.9334   -3.8218 C   0  0  2  0  0  0  0  0  0  0  0  0
    5.3253  -14.6321   -4.8756 C   0  0  1  0  0  0  0  0  0  0  0  0
    5.6584  -16.2133   -4.9919 C   0  0  1  0  0  0  0  0  0  0  0  0
    4.7376  -16.9756   -5.9846 C   0  0  0  0  0  0  0  0  0  0  0  0
    9.5680  -20.3087   -4.5808 C   0  0  1  0  0  0  0  0  0  0  0  0
   10.6443  -19.2880   -3.9499 C   0  0  0  0  0  0  0  0  0  0  0  0
   10.1149  -17.7932   -4.0357 C   0  0  2  0  0  0  0  0  0  0  0  0
    3.9247  -14.5353   -4.4509 F   0  0  0  0  0  0  0  0  0  0  0  0
    8.8354  -13.4289   -3.4341 N   0  0  0  0  0  0  0  0  0  0  0  0
    3.3638  -16.9621   -5.6374 N   0  0  0  0  0  0  0  0  0  0  0  0
   10.1519  -21.6826   -4.4668 N   0  0  0  0  0  0  0  0  0  0  0  0
   11.0739  -16.8596   -3.4526 N   0  0  0  0  0  0  0  0  0  0  0  0
    8.4189  -16.3244   -3.3508 O   0  0  0  0  0  0  0  0  0  0  0  0
    6.4152  -18.5528   -3.0552 O   0  0  0  0  0  0  0  0  0  0  0  0
    7.2787  -21.0627   -4.2308 O   0  0  0  0  0  0  0  0  0  0  0  0
    6.0630  -12.7863   -3.7526 O   0  0  0  0  0  0  0  0  0  0  0  0
    7.1719  -16.3274   -5.4101 O   0  0  0  0  0  0  0  0  0  0  0  0
  1  5  1  0  0  0  0
  1 18  1  1  0  0  0
  2 18  1  6  0  0  0
  2  3  1  0  0  0  0
  2 12  1  0  0  0  0
  3 19  1  1  0  0  0
  3  4  1  0  0  0  0
  4 20  1  6  0  0  0
  4 10  1  0  0  0  0
  5  6  1  0  0  0  0
  5 14  1  1  0  0  0
  6 21  1  6  0  0  0
  7 13  1  1  0  0  0
  7  6  1  0  0  0  0
  8  9  1  6  0  0  0
  8  7  1  0  0  0  0
 10 16  1  1  0  0  0
 11 10  1  0  0  0  0
 12 17  1  1  0  0  0
 12 11  1  0  0  0  0
 15  9  1  0  0  0  0
 22  8  1  0  0  0  0
 22  1  1  0  0  0  0
M  END
>  <CHROM.1>
-179.78433899,-63.03897784,-61.88433134,7.45443008,-16.95948910,-4.23011718
-2.19849721,0.24258966,-3.05359894

>  <Name>
lig.pdb

>  <RI>
0

>  <Rbt.Current_Directory>
/home/itssahil/PROJECTS/Mol_Feturizer/New_Systems/rnas/5bxk

>  <Rbt.Executable>
rbdock ($Id: //depot/dev/client3/rdock/2013.1/src/exe/rbdock.cxx#4 $)

>  <Rbt.Library>
libRbt.so (2013.1, Build901 2013/11/27)

>  <Rbt.Parameter_File>
/export/apps/rDock/src/rDock_2013.1_src/data/scripts/dock_solv.prm

>  <Rbt.Receptor>
prm/blind_docking_40.prm

>  <SCORE>
-7.55471

>  <SCORE.INTER>
-4.39093

>  <SCORE.INTER.CONST>
1

>  <SCORE.INTER.POLAR>
0

>  <SCORE.INTER.ROT>
3

>  <SCORE.INTER.SOLV>
16.0846

>  <SCORE.INTER.VDW>
-13.8888

>  <SCORE.INTER.norm>
-0.199588

>  <SCORE.INTRA>
-3.16378

>  <SCORE.INTRA.DIHEDRAL>
-6.98688

>  <SCORE.INTRA.DIHEDRAL.0>
7.18044

>  <SCORE.INTRA.POLAR>
0

>  <SCORE.INTRA.POLAR.0>
0

>  <SCORE.INTRA.REPUL>
0

>  <SCORE.INTRA.REPUL.0>
0

>  <SCORE.INTRA.SOLV>
0.511226

>  <SCORE.INTRA.SOLV.lig_0>
-72.0615

>  <SCORE.INTRA.VDW>
0.0740416

>  <SCORE.INTRA.VDW.0>
-1.54792

>  <SCORE.INTRA.norm>
-0.143808

>  <SCORE.RESTR>
0

>  <SCORE.RESTR.CAVITY>
0

>  <SCORE.RESTR.norm>
0

>  <SCORE.SYSTEM>
0

>  <SCORE.SYSTEM.CONST>
0

>  <SCORE.SYSTEM.DIHEDRAL>
0

>  <SCORE.SYSTEM.SOLV>
0

>  <SCORE.SYSTEM.norm>
0

>  <SCORE.heavy>
22

>  <SCORE.norm>
-0.343396

>  <RMSD>
34.029

$$$$
lig.pdb
 OpenBabel11021811523D
libRbt.so/2013.1/901 2013/11/27
 22 23  0  0  0  0  0  0  0  0999 V2000
    4.8900  -14.3117   -4.5735 C   0  0  1  0  0  0  0  0  0  0  0  0
    7.2626  -14.9694   -4.1416 C   0  0  1  0  0  0  0  0  0  0  0  0
    8.0430  -13.6077   -3.6660 C   0  0  1  0  0  0  0  0  0  0  0  0
    9.6037  -13.7956   -4.0180 C   0  0  2  0  0  0  0  0  0  0  0  0
    3.4366  -14.1907   -3.9277 C   0  0  1  0  0  0  0  0  0  0  0  0
    2.7365  -15.6042   -3.8705 C   0  0  2  0  0  0  0  0  0  0  0  0
    2.5710  -16.1479   -5.3736 C   0  0  1  0  0  0  0  0  0  0  0  0
    4.0260  -16.3577   -6.0546 C   0  0  1  0  0  0  0  0  0  0  0  0
    3.9637  -16.8941   -7.5116 C   0  0  0  0  0  0  0  0  0  0  0  0
   10.1497  -15.0358   -3.1544 C   0  0  1  0  0  0  0  0  0  0  0  0
    9.3510  -16.3500   -3.6377 C   0  0  0  0  0  0  0  0  0  0  0  0
    7.7955  -16.1934   -3.3588 C   0  0  2  0  0  0  0  0  0  0  0  0
    1.9060  -17.4548   -5.4092 F   0  0  0  0  0  0  0  0  0  0  0  0
    3.6504  -13.5700   -2.5389 N   0  0  0  0  0  0  0  0  0  0  0  0
    3.3640  -18.1716   -7.6403 N   0  0  0  0  0  0  0  0  0  0  0  0
   11.5987  -15.2754   -3.4448 N   0  0  0  0  0  0  0  0  0  0  0  0
    7.0580  -17.3709   -3.8069 N   0  0  0  0  0  0  0  0  0  0  0  0
    5.8828  -14.9290   -3.8554 O   0  0  0  0  0  0  0  0  0  0  0  0
    7.4994  -12.4606   -4.4565 O   0  0  0  0  0  0  0  0  0  0  0  0
   10.2720  -12.6477   -3.6167 O   0  0  0  0  0  0  0  0  0  0  0  0
    1.6711  -15.4550   -3.3932 O   0  0  0  0  0  0  0  0  0  0  0  0
    4.7625  -14.9680   -5.9859 O   0  0  0  0  0  0  0  0  0  0  0  0
  1  5  1  0  0  0  0
  1 18  1  1  0  0  0
  2 18  1  1  0  0  0
  2  3  1  0  0  0  0
  2 12  1  0  0  0  0
  3 19  1  6  0  0  0
  3  4  1  0  0  0  0
  4 20  1  1  0  0  0
  4 10  1  0  0  0  0
  5  6  1  0  0  0  0
  5 14  1  1  0  0  0
  6 21  1  6  0  0  0
  7 13  1  1  0  0  0
  7  6  1  0  0  0  0
  8  9  1  6  0  0  0
  8  7  1  0  0  0  0
 10 16  1  6  0  0  0
 11 10  1  0  0  0  0
 12 17  1  6  0  0  0
 12 11  1  0  0  0  0
 15  9  1  0  0  0  0
 22  8  1  0  0  0  0
 22  1  1  0  0  0  0
M  END
>  <CHROM.1>
-169.74560283,81.07567261,-61.97230168,5.91117199,-15.26736036,-4.44611274
2.78204371,0.05132730,-2.55214602

>  <Name>
lig.pdb

>  <RI>
0

>  <Rbt.Current_Directory>
/home/itssahil/PROJECTS/Mol_Feturizer/New_Systems/rnas/5bxk

>  <Rbt.Executable>
rbdock ($Id: //depot/dev/client3/rdock/2013.1/src/exe/rbdock.cxx#4 $)

>  <Rbt.Library>
libRbt.so (2013.1, Build901 2013/11/27)

>  <Rbt.Parameter_File>
/export/apps/rDock/src/rDock_2013.1_src/data/scripts/dock_solv.prm

>  <Rbt.Receptor>
prm/blind_docking_60.prm

>  <SCORE>
-8.57131

>  <SCORE.INTER>
-6.0942

>  <SCORE.INTER.CONST>
1

>  <SCORE.INTER.POLAR>
0

>  <SCORE.INTER.ROT>
3

>  <SCORE.INTER.SOLV>
18.2977

>  <SCORE.INTER.VDW>
-15.762

>  <SCORE.INTER.norm>
-0.277009

>  <SCORE.INTRA>
-2.47712

>  <SCORE.INTRA.DIHEDRAL>
-4.56539

>  <SCORE.INTRA.DIHEDRAL.0>
7.18044

>  <SCORE.INTRA.POLAR>
0

>  <SCORE.INTRA.POLAR.0>
0

>  <SCORE.INTRA.REPUL>
0

>  <SCORE.INTRA.REPUL.0>
0

>  <SCORE.INTRA.SOLV>
-0.270477

>  <SCORE.INTRA.SOLV.lig_0>
-72.0615

>  <SCORE.INTRA.VDW>
-0.0591838

>  <SCORE.INTRA.VDW.0>
-1.54792

>  <SCORE.INTRA.norm>
-0.112596

>  <SCORE.RESTR>
0

>  <SCORE.RESTR.CAVITY>
0

>  <SCORE.RESTR.norm>
0

>  <SCORE.SYSTEM>
0

>  <SCORE.SYSTEM.CONST>
0

>  <SCORE.SYSTEM.DIHEDRAL>
0

>  <SCORE.SYSTEM.SOLV>
0

>  <SCORE.SYSTEM.norm>
0

>  <SCORE.heavy>
22

>  <SCORE.norm>
-0.389605

>  <RMSD>
34.047

$$$$
lig.pdb
 OpenBabel11021811523D
libRbt.so/2013.1/901 2013/11/27
 22 23  0  0  0  0  0  0  0  0999 V2000
    9.5292  -21.3170   -4.3239 C   0  0  1  0  0  0  0  0  0  0  0  0
    8.3977  -19.1260   -3.9143 C   0  0  1  0  0  0  0  0  0  0  0  0
    9.6677  -18.1330   -4.2146 C   0  0  1  0  0  0  0  0  0  0  0  0
    9.3650  -16.7264   -3.4901 C   0  0  2  0  0  0  0  0  0  0  0  0
    9.5058  -22.6629   -5.1794 C   0  0  1  0  0  0  0  0  0  0  0  0
    8.3155  -23.5914   -4.7186 C   0  0  2  0  0  0  0  0  0  0  0  0
    8.5471  -23.9836   -3.1776 C   0  0  1  0  0  0  0  0  0  0  0  0
    8.5083  -22.6548   -2.2516 C   0  0  1  0  0  0  0  0  0  0  0  0
    8.7133  -22.9403   -0.7380 C   0  0  0  0  0  0  0  0  0  0  0  0
    8.0477  -16.1049   -4.1689 C   0  0  1  0  0  0  0  0  0  0  0  0
    6.8268  -17.1131   -3.8667 C   0  0  0  0  0  0  0  0  0  0  0  0
    7.1012  -18.5351   -4.5183 C   0  0  2  0  0  0  0  0  0  0  0  0
    7.4892  -24.8673   -2.6762 F   0  0  0  0  0  0  0  0  0  0  0  0
    9.3890  -22.2201   -6.6457 N   0  0  0  0  0  0  0  0  0  0  0  0
    8.5969  -21.7993    0.0943 N   0  0  0  0  0  0  0  0  0  0  0  0
    7.7002  -14.7962   -3.5302 N   0  0  0  0  0  0  0  0  0  0  0  0
    6.0097  -19.4632   -4.2382 N   0  0  0  0  0  0  0  0  0  0  0  0
    8.5413  -20.3870   -4.5279 O   0  0  0  0  0  0  0  0  0  0  0  0
   10.8890  -18.7430   -3.6041 O   0  0  0  0  0  0  0  0  0  0  0  0
   10.4348  -15.8790   -3.7411 O   0  0  0  0  0  0  0  0  0  0  0  0
    8.3498  -24.5672   -5.3759 O   0  0  0  0  0  0  0  0  0  0  0  0
    9.6157  -21.6834   -2.8073 O   0  0  0  0  0  0  0  0  0  0  0  0
  1  5  1  0  0  0  0
  1 18  1  1  0  0  0
  2 18  1  6  0  0  0
  2  3  1  0  0  0  0
  2 12  1  0  0  0  0
  3 19  1  1  0  0  0
  3  4  1  0  0  0  0
  4 20  1  6  0  0  0
  4 10  1  0  0  0  0
  5  6  1  0  0  0  0
  5 14  1  6  0  0  0
  6 21  1  6  0  0  0
  7 13  1  1  0  0  0
  7  6  1  0  0  0  0
  8  9  1  1  0  0  0
  8  7  1  0  0  0  0
 10 16  1  1  0  0  0
 11 10  1  0  0  0  0
 12 17  1  1  0  0  0
 12 11  1  0  0  0  0
 15  9  1  0  0  0  0
 22  8  1  0  0  0  0
 22  1  1  0  0  0  0
M  END
>  <CHROM.1>
-177.93327347,60.78324481,-176.16613998,8.62505413,-20.40276765,-3.69365769
-2.01323020,1.52193050,0.38317202

>  <Name>
lig.pdb

>  <RI>
0

>  <Rbt.Current_Directory>
/home/itssahil/PROJECTS/Mol_Feturizer/New_Systems/rnas/5bxk

>  <Rbt.Executable>
rbdock ($Id: //depot/dev/client3/rdock/2013.1/src/exe/rbdock.cxx#4 $)

>  <Rbt.Library>
libRbt.so (2013.1, Build901 2013/11/27)

>  <Rbt.Parameter_File>
/export/apps/rDock/src/rDock_2013.1_src/data/scripts/dock_solv.prm

>  <Rbt.Receptor>
prm/blind_docking_100.prm

>  <SCORE>
-6.02222

>  <SCORE.INTER>
-1.71447

>  <SCORE.INTER.CONST>
1

>  <SCORE.INTER.POLAR>
0

>  <SCORE.INTER.ROT>
3

>  <SCORE.INTER.SOLV>
18.8039

>  <SCORE.INTER.VDW>
-13.011

>  <SCORE.INTER.norm>
-0.0779307

>  <SCORE.INTRA>
-4.30774

>  <SCORE.INTRA.DIHEDRAL>
-6.96794

>  <SCORE.INTRA.DIHEDRAL.0>
7.18044

>  <SCORE.INTRA.POLAR>
0

>  <SCORE.INTRA.POLAR.0>
0

>  <SCORE.INTRA.REPUL>
0

>  <SCORE.INTRA.REPUL.0>
0

>  <SCORE.INTRA.SOLV>
-1.83768

>  <SCORE.INTRA.SOLV.lig_0>
-72.0615

>  <SCORE.INTRA.VDW>
0.0950696

>  <SCORE.INTRA.VDW.0>
-1.54792

>  <SCORE.INTRA.norm>
-0.195806

>  <SCORE.RESTR>
0

>  <SCORE.RESTR.CAVITY>
0

>  <SCORE.RESTR.norm>
0

>  <SCORE.SYSTEM>
0

>  <SCORE.SYSTEM.CONST>
0

>  <SCORE.SYSTEM.DIHEDRAL>
0

>  <SCORE.SYSTEM.SOLV>
0

>  <SCORE.SYSTEM.norm>
0

>  <SCORE.heavy>
22

>  <SCORE.norm>
-0.273737

>  <RMSD>
34.072

$$$$
lig.pdb
 OpenBabel11021811523D
libRbt.so/2013.1/901 2013/11/27
 22 23  0  0  0  0  0  0  0  0999 V2000
    7.6821  -15.4671   -3.4254 C   0  0  1  0  0  0  0  0  0  0  0  0
    5.3582  -15.2751   -4.3261 C   0  0  1  0  0  0  0  0  0  0  0  0
    4.8833  -13.7819   -3.8423 C   0  0  1  0  0  0  0  0  0  0  0  0
    3.2733  -13.7794   -3.7877 C   0  0  2  0  0  0  0  0  0  0  0  0
    9.2058  -15.1213   -3.7461 C   0  0  1  0  0  0  0  0  0  0  0  0
    9.8527  -16.2485   -4.6418 C   0  0  2  0  0  0  0  0  0  0  0  0
    9.8165  -17.6297   -3.8213 C   0  0  1  0  0  0  0  0  0  0  0  0
    8.2836  -18.0659   -3.5302 C   0  0  1  0  0  0  0  0  0  0  0  0
    8.1507  -19.4016   -2.7475 C   0  0  0  0  0  0  0  0  0  0  0  0
    2.7372  -14.0367   -5.2805 C   0  0  1  0  0  0  0  0  0  0  0  0
    3.2350  -15.5036   -5.7266 C   0  0  0  0  0  0  0  0  0  0  0  0
    4.8214  -15.5739   -5.7465 C   0  0  2  0  0  0  0  0  0  0  0  0
   10.4217  -18.7294   -4.5803 F   0  0  0  0  0  0  0  0  0  0  0  0
    9.1835  -13.7476   -4.4331 N   0  0  0  0  0  0  0  0  0  0  0  0
    6.8227  -19.8820   -2.6301 N   0  0  0  0  0  0  0  0  0  0  0  0
    1.2404  -14.0602   -5.2999 N   0  0  0  0  0  0  0  0  0  0  0  0
    5.2857  -16.9027   -6.1335 N   0  0  0  0  0  0  0  0  0  0  0  0
    6.7591  -15.3866   -4.4375 O   0  0  0  0  0  0  0  0  0  0  0  0
    5.4183  -13.5476   -2.4656 O   0  0  0  0  0  0  0  0  0  0  0  0
    2.8629  -12.5179   -3.3807 O   0  0  0  0  0  0  0  0  0  0  0  0
   10.9726  -15.9460   -4.8414 O   0  0  0  0  0  0  0  0  0  0  0  0
    7.6146  -16.8740   -2.7488 O   0  0  0  0  0  0  0  0  0  0  0  0
  1  5  1  0  0  0  0
  1 18  1  6  0  0  0
  2 18  1  6  0  0  0
  2  3  1  0  0  0  0
  2 12  1  0  0  0  0
  3 19  1  1  0  0  0
  3  4  1  0  0  0  0
  4 20  1  6  0  0  0
  4 10  1  0  0  0  0
  5  6  1  0  0  0  0
  5 14  1  6  0  0  0
  6 21  1  1  0  0  0
  7 13  1  6  0  0  0
  7  6  1  0  0  0  0
  8  9  1  1  0  0  0
  8  7  1  0  0  0  0
 10 16  1  1  0  0  0
 11 10  1  0  0  0  0
 12 17  1  1  0  0  0
 12 11  1  0  0  0  0
 15  9  1  0  0  0  0
 22  8  1  0  0  0  0
 22  1  1  0  0  0  0
M  END
>  <CHROM.1>
-160.60256653,73.65782625,-172.51746589,6.60607137,-15.82089284,-4.14873153
-0.51496113,-0.08159579,-0.02149736

>  <Name>
lig.pdb

>  <RI>
0

>  <Rbt.Current_Directory>
/home/itssahil/PROJECTS/Mol_Feturizer/New_Systems/rnas/5bxk

>  <Rbt.Executable>
rbdock ($Id: //depot/dev/client3/rdock/2013.1/src/exe/rbdock.cxx#4 $)

>  <Rbt.Library>
libRbt.so (2013.1, Build901 2013/11/27)

>  <Rbt.Parameter_File>
/export/apps/rDock/src/rDock_2013.1_src/data/scripts/dock_solv.prm

>  <Rbt.Receptor>
prm/blind_docking_80.prm

>  <SCORE>
-7.79026

>  <SCORE.INTER>
-4.98856

>  <SCORE.INTER.CONST>
1

>  <SCORE.INTER.POLAR>
0

>  <SCORE.INTER.ROT>
3

>  <SCORE.INTER.SOLV>
18.4859

>  <SCORE.INTER.VDW>
-15.0877

>  <SCORE.INTER.norm>
-0.226753

>  <SCORE.INTRA>
-2.80705

>  <SCORE.INTRA.DIHEDRAL>
-4.32262

>  <SCORE.INTRA.DIHEDRAL.0>
7.18044

>  <SCORE.INTRA.POLAR>
0

>  <SCORE.INTRA.POLAR.0>
0

>  <SCORE.INTRA.REPUL>
0

>  <SCORE.INTRA.REPUL.0>
0

>  <SCORE.INTRA.SOLV>
-1.29468

>  <SCORE.INTRA.SOLV.lig_0>
-72.0615

>  <SCORE.INTRA.VDW>
0.00159659

>  <SCORE.INTRA.VDW.0>
-1.54792

>  <SCORE.INTRA.norm>
-0.127593

>  <SCORE.RESTR>
0.00535044

>  <SCORE.RESTR.CAVITY>
0.00535044

>  <SCORE.RESTR.norm>
0.000243202

>  <SCORE.SYSTEM>
0

>  <SCORE.SYSTEM.CONST>
0

>  <SCORE.SYSTEM.DIHEDRAL>
0

>  <SCORE.SYSTEM.SOLV>
0

>  <SCORE.SYSTEM.norm>
0

>  <SCORE.heavy>
22

>  <SCORE.norm>
-0.354103

>  <RMSD>
34.073

$$$$
lig.pdb
 OpenBabel11021811523D
libRbt.so/2013.1/901 2013/11/27
 22 23  0  0  0  0  0  0  0  0999 V2000
    7.3815  -15.2258   -3.3901 C   0  0  1  0  0  0  0  0  0  0  0  0
    5.0697  -15.0531   -4.3251 C   0  0  1  0  0  0  0  0  0  0  0  0
    4.5799  -13.5810   -3.7939 C   0  0  1  0  0  0  0  0  0  0  0  0
    2.9692  -13.5864   -3.7678 C   0  0  2  0  0  0  0  0  0  0  0  0
    8.9320  -15.0585   -3.7247 C   0  0  1  0  0  0  0  0  0  0  0  0
    9.4704  -16.3223   -4.5020 C   0  0  2  0  0  0  0  0  0  0  0  0
    9.3004  -17.6092   -3.5546 C   0  0  1  0  0  0  0  0  0  0  0  0
    7.7321  -17.8681   -3.2410 C   0  0  1  0  0  0  0  0  0  0  0  0
    7.4704  -19.1042   -2.3366 C   0  0  0  0  0  0  0  0  0  0  0  0
    2.4605  -13.7892   -5.2785 C   0  0  1  0  0  0  0  0  0  0  0  0
    2.9725  -15.2363   -5.7706 C   0  0  0  0  0  0  0  0  0  0  0  0
    4.5593  -15.3000   -5.7650 C   0  0  2  0  0  0  0  0  0  0  0  0
    9.7995  -18.8288   -4.1988 F   0  0  0  0  0  0  0  0  0  0  0  0
    9.0427  -13.7607   -4.5391 N   0  0  0  0  0  0  0  0  0  0  0  0
    7.8265  -20.3444   -2.9225 N   0  0  0  0  0  0  0  0  0  0  0  0
    0.9644  -13.8174   -5.3253 N   0  0  0  0  0  0  0  0  0  0  0  0
    5.0361  -16.6116   -6.1936 N   0  0  0  0  0  0  0  0  0  0  0  0
    6.4728  -15.1552   -4.4157 O   0  0  0  0  0  0  0  0  0  0  0  0
    5.0896  -13.3968   -2.4001 O   0  0  0  0  0  0  0  0  0  0  0  0
    2.5463  -12.3427   -3.3209 O   0  0  0  0  0  0  0  0  0  0  0  0
   10.6145  -16.1479   -4.7165 O   0  0  0  0  0  0  0  0  0  0  0  0
    7.1783  -16.5490   -2.5839 O   0  0  0  0  0  0  0  0  0  0  0  0
  1  5  1  0  0  0  0
  1 18  1  6  0  0  0
  2 18  1  6  0  0  0
  2  3  1  0  0  0  0
  2 12  1  0  0  0  0
  3 19  1  1  0  0  0
  3  4  1  0  0  0  0
  4 20  1  6  0  0  0
  4 10  1  0  0  0  0
  5  6  1  0  0  0  0
  5 14  1  6  0  0  0
  6 21  1  1  0  0  0
  7 13  1  6  0  0  0
  7  6  1  0  0  0  0
  8  9  1  1  0  0  0
  8  7  1  0  0  0  0
 10 16  1  1  0  0  0
 11 10  1  0  0  0  0
 12 17  1  1  0  0  0
 12 11  1  0  0  0  0
 15  9  1  0  0  0  0
 22  8  1  0  0  0  0
 22  1  1  0  0  0  0
M  END
>  <CHROM.1>
-168.50871233,71.28957078,-65.17437084,6.30929746,-15.69836841,-4.07502755
-0.56877150,-0.11910060,-0.01661938

>  <Name>
lig.pdb

>  <RI>
0

>  <Rbt.Current_Directory>
/home/itssahil/PROJECTS/Mol_Feturizer/New_Systems/rnas/5bxk

>  <Rbt.Executable>
rbdock ($Id: //depot/dev/client3/rdock/2013.1/src/exe/rbdock.cxx#4 $)

>  <Rbt.Library>
libRbt.so (2013.1, Build901 2013/11/27)

>  <Rbt.Parameter_File>
/export/apps/rDock/src/rDock_2013.1_src/data/scripts/dock_solv.prm

>  <Rbt.Receptor>
prm/blind_docking_60.prm

>  <SCORE>
-9.13542

>  <SCORE.INTER>
-5.98325

>  <SCORE.INTER.CONST>
1

>  <SCORE.INTER.POLAR>
0

>  <SCORE.INTER.ROT>
3

>  <SCORE.INTER.SOLV>
18.8825

>  <SCORE.INTER.VDW>
-15.883

>  <SCORE.INTER.norm>
-0.271966

>  <SCORE.INTRA>
-3.15217

>  <SCORE.INTRA.DIHEDRAL>
-5.73035

>  <SCORE.INTRA.DIHEDRAL.0>
7.18044

>  <SCORE.INTRA.POLAR>
0

>  <SCORE.INTRA.POLAR.0>
0

>  <SCORE.INTRA.REPUL>
0

>  <SCORE.INTRA.REPUL.0>
0

>  <SCORE.INTRA.SOLV>
-0.621857

>  <SCORE.INTRA.SOLV.lig_0>
-72.0615

>  <SCORE.INTRA.VDW>
0.023933

>  <SCORE.INTRA.VDW.0>
-1.54792

>  <SCORE.INTRA.norm>
-0.14328

>  <SCORE.RESTR>
0

>  <SCORE.RESTR.CAVITY>
0

>  <SCORE.RESTR.norm>
0

>  <SCORE.SYSTEM>
0

>  <SCORE.SYSTEM.CONST>
0

>  <SCORE.SYSTEM.DIHEDRAL>
0

>  <SCORE.SYSTEM.SOLV>
0

>  <SCORE.SYSTEM.norm>
0

>  <SCORE.heavy>
22

>  <SCORE.norm>
-0.415246

>  <RMSD>
34.079

$$$$
lig.pdb
 OpenBabel11021811523D
libRbt.so/2013.1/901 2013/11/27
 22 23  0  0  0  0  0  0  0  0999 V2000
    7.3732  -15.2757   -3.3556 C   0  0  1  0  0  0  0  0  0  0  0  0
    5.0726  -15.0750   -4.3124 C   0  0  1  0  0  0  0  0  0  0  0  0
    4.5838  -13.5971   -3.7966 C   0  0  1  0  0  0  0  0  0  0  0  0
    2.9729  -13.5962   -3.7850 C   0  0  2  0  0  0  0  0  0  0  0  0
    8.9272  -15.1001   -3.6690 C   0  0  1  0  0  0  0  0  0  0  0  0
    9.4754  -16.3463   -4.4676 C   0  0  2  0  0  0  0  0  0  0  0  0
    9.2959  -17.6536   -3.5506 C   0  0  1  0  0  0  0  0  0  0  0  0
    7.7244  -17.9203   -3.2604 C   0  0  1  0  0  0  0  0  0  0  0  0
    7.4536  -19.1762   -2.3864 C   0  0  0  0  0  0  0  0  0  0  0  0
    2.4770  -13.8084   -5.2986 C   0  0  1  0  0  0  0  0  0  0  0  0
    2.9877  -15.2611   -5.7753 C   0  0  0  0  0  0  0  0  0  0  0  0
    4.5741  -15.3309   -5.7549 C   0  0  2  0  0  0  0  0  0  0  0  0
    9.8033  -18.8585   -4.2157 F   0  0  0  0  0  0  0  0  0  0  0  0
    9.0459  -13.7847   -4.4535 N   0  0  0  0  0  0  0  0  0  0  0  0
    7.8198  -20.4028   -2.9941 N   0  0  0  0  0  0  0  0  0  0  0  0
    0.9812  -13.8313   -5.3586 N   0  0  0  0  0  0  0  0  0  0  0  0
    5.0496  -16.6474   -6.1693 N   0  0  0  0  0  0  0  0  0  0  0  0
    6.4760  -15.1832   -4.3896 O   0  0  0  0  0  0  0  0  0  0  0  0
    5.0816  -13.4045   -2.3997 O   0  0  0  0  0  0  0  0  0  0  0  0
    2.5508  -12.3476   -3.3512 O   0  0  0  0  0  0  0  0  0  0  0  0
   10.6216  -16.1665   -4.6654 O   0  0  0  0  0  0  0  0  0  0  0  0
    7.1621  -16.6163   -2.5809 O   0  0  0  0  0  0  0  0  0  0  0  0
  1  5  1  0  0  0  0
  1 18  1  6  0  0  0
  2 18  1  6  0  0  0
  2  3  1  0  0  0  0
  2 12  1  0  0  0  0
  3 19  1  1  0  0  0
  3  4  1  0  0  0  0
  4 20  1  6  0  0  0
  4 10  1  0  0  0  0
  5  6  1  0  0  0  0
  5 14  1  6  0  0  0
  6 21  1  1  0  0  0
  7 13  1  6  0  0  0
  7  6  1  0  0  0  0
  8  9  1  1  0  0  0
  8  7  1  0  0  0  0
 10 16  1  1  0  0  0
 11 10  1  0  0  0  0
 12 17  1  1  0  0  0
 12 11  1  0  0  0  0
 15  9  1  0  0  0  0
 22  8  1  0  0  0  0
 22  1  1  0  0  0  0
M  END
>  <CHROM.1>
-168.04684786,72.67620958,-65.05617790,6.31105410,-15.72975062,-4.07187398
-0.57078814,-0.13685281,0.00802181

>  <Name>
lig.pdb

>  <RI>
0

>  <Rbt.Current_Directory>
/home/itssahil/PROJECTS/Mol_Feturizer/New_Systems/rnas/5bxk

>  <Rbt.Executable>
rbdock ($Id: //depot/dev/client3/rdock/2013.1/src/exe/rbdock.cxx#4 $)

>  <Rbt.Library>
libRbt.so (2013.1, Build901 2013/11/27)

>  <Rbt.Parameter_File>
/export/apps/rDock/src/rDock_2013.1_src/data/scripts/dock_solv.prm

>  <Rbt.Receptor>
prm/blind_docking_60.prm

>  <SCORE>
-9.12899

>  <SCORE.INTER>
-6.07467

>  <SCORE.INTER.CONST>
1

>  <SCORE.INTER.POLAR>
0

>  <SCORE.INTER.ROT>
3

>  <SCORE.INTER.SOLV>
18.3897

>  <SCORE.INTER.VDW>
-15.7797

>  <SCORE.INTER.norm>
-0.276121

>  <SCORE.INTRA>
-3.05465

>  <SCORE.INTRA.DIHEDRAL>
-5.53297

>  <SCORE.INTRA.DIHEDRAL.0>
7.18044

>  <SCORE.INTRA.POLAR>
0

>  <SCORE.INTRA.POLAR.0>
0

>  <SCORE.INTRA.REPUL>
0

>  <SCORE.INTRA.REPUL.0>
0

>  <SCORE.INTRA.SOLV>
-0.565714

>  <SCORE.INTRA.SOLV.lig_0>
-72.0615

>  <SCORE.INTRA.VDW>
-0.00530528

>  <SCORE.INTRA.VDW.0>
-1.54792

>  <SCORE.INTRA.norm>
-0.138848

>  <SCORE.RESTR>
0.000326324

>  <SCORE.RESTR.CAVITY>
0.000326324

>  <SCORE.RESTR.norm>
1.48329e-05

>  <SCORE.SYSTEM>
0

>  <SCORE.SYSTEM.CONST>
0

>  <SCORE.SYSTEM.DIHEDRAL>
0

>  <SCORE.SYSTEM.SOLV>
0

>  <SCORE.SYSTEM.norm>
0

>  <SCORE.heavy>
22

>  <SCORE.norm>
-0.414954

>  <RMSD>
34.081

$$$$
lig.pdb
 OpenBabel11021811523D
libRbt.so/2013.1/901 2013/11/27
 22 23  0  0  0  0  0  0  0  0999 V2000
    7.4129  -15.2455   -3.3923 C   0  0  1  0  0  0  0  0  0  0  0  0
    5.0928  -15.0707   -4.3060 C   0  0  1  0  0  0  0  0  0  0  0  0
    4.5883  -13.6004   -3.7835 C   0  0  1  0  0  0  0  0  0  0  0  0
    2.9782  -13.6271   -3.7418 C   0  0  2  0  0  0  0  0  0  0  0  0
    8.9600  -15.0619   -3.7343 C   0  0  1  0  0  0  0  0  0  0  0  0
    9.4990  -16.3038   -4.5458 C   0  0  2  0  0  0  0  0  0  0  0  0
    9.3428  -17.6139   -3.6285 C   0  0  1  0  0  0  0  0  0  0  0  0
    7.7783  -17.8886   -3.3096 C   0  0  1  0  0  0  0  0  0  0  0  0
    7.5297  -19.1476   -2.4334 C   0  0  0  0  0  0  0  0  0  0  0  0
    2.4579  -13.8507   -5.2456 C   0  0  1  0  0  0  0  0  0  0  0  0
    2.9845  -15.2953   -5.7294 C   0  0  0  0  0  0  0  0  0  0  0  0
    4.5720  -15.3378   -5.7386 C   0  0  2  0  0  0  0  0  0  0  0  0
    9.8432  -18.8150   -4.3056 F   0  0  0  0  0  0  0  0  0  0  0  0
    9.0578  -13.7443   -4.5179 N   0  0  0  0  0  0  0  0  0  0  0  0
    7.9173  -20.3686   -3.0393 N   0  0  0  0  0  0  0  0  0  0  0  0
    0.9619  -13.8993   -5.2778 N   0  0  0  0  0  0  0  0  0  0  0  0
    5.0622  -16.6468   -6.1597 N   0  0  0  0  0  0  0  0  0  0  0  0
    6.4962  -15.1550   -4.4091 O   0  0  0  0  0  0  0  0  0  0  0  0
    5.1087  -13.3966   -2.3964 O   0  0  0  0  0  0  0  0  0  0  0  0
    2.5428  -12.3851   -3.3023 O   0  0  0  0  0  0  0  0  0  0  0  0
   10.6405  -16.1182   -4.7645 O   0  0  0  0  0  0  0  0  0  0  0  0
    7.2226  -16.5887   -2.6168 O   0  0  0  0  0  0  0  0  0  0  0  0
  1  5  1  0  0  0  0
  1 18  1  6  0  0  0
  2 18  1  6  0  0  0
  2  3  1  0  0  0  0
  2 12  1  0  0  0  0
  3 19  1  1  0  0  0
  3  4  1  0  0  0  0
  4 20  1  6  0  0  0
  4 10  1  0  0  0  0
  5  6  1  0  0  0  0
  5 14  1  6  0  0  0
  6 21  1  1  0  0  0
  7 13  1  6  0  0  0
  7  6  1  0  0  0  0
  8  9  1  1  0  0  0
  8  7  1  0  0  0  0
 10 16  1  1  0  0  0
 11 10  1  0  0  0  0
 12 17  1  1  0  0  0
 12 11  1  0  0  0  0
 15  9  1  0  0  0  0
 22  8  1  0  0  0  0
 22  1  1  0  0  0  0
M  END
>  <CHROM.1>
-168.93359196,73.49119179,-63.74459033,6.33595798,-15.71895762,-4.09073944
-0.55910983,-0.11768740,0.01042325

>  <Name>
lig.pdb

>  <RI>
0

>  <Rbt.Current_Directory>
/home/itssahil/PROJECTS/Mol_Feturizer/New_Systems/rnas/5bxk

>  <Rbt.Executable>
rbdock ($Id: //depot/dev/client3/rdock/2013.1/src/exe/rbdock.cxx#4 $)

>  <Rbt.Library>
libRbt.so (2013.1, Build901 2013/11/27)

>  <Rbt.Parameter_File>
/export/apps/rDock/src/rDock_2013.1_src/data/scripts/dock_solv.prm

>  <Rbt.Receptor>
prm/blind_docking_60.prm

>  <SCORE>
-9.09009

>  <SCORE.INTER>
-6.03763

>  <SCORE.INTER.CONST>
1

>  <SCORE.INTER.POLAR>
0

>  <SCORE.INTER.ROT>
3

>  <SCORE.INTER.SOLV>
18.264

>  <SCORE.INTER.VDW>
-15.7131

>  <SCORE.INTER.norm>
-0.274438

>  <SCORE.INTRA>
-3.05605

>  <SCORE.INTRA.DIHEDRAL>
-5.56809

>  <SCORE.INTRA.DIHEDRAL.0>
7.18044

>  <SCORE.INTRA.POLAR>
0

>  <SCORE.INTRA.POLAR.0>
0

>  <SCORE.INTRA.REPUL>
0

>  <SCORE.INTRA.REPUL.0>
0

>  <SCORE.INTRA.SOLV>
-0.536827

>  <SCORE.INTRA.SOLV.lig_0>
-72.0615

>  <SCORE.INTRA.VDW>
-0.00359032

>  <SCORE.INTRA.VDW.0>
-1.54792

>  <SCORE.INTRA.norm>
-0.138911

>  <SCORE.RESTR>
0.00359855

>  <SCORE.RESTR.CAVITY>
0.00359855

>  <SCORE.RESTR.norm>
0.00016357

>  <SCORE.SYSTEM>
0

>  <SCORE.SYSTEM.CONST>
0

>  <SCORE.SYSTEM.DIHEDRAL>
0

>  <SCORE.SYSTEM.SOLV>
0

>  <SCORE.SYSTEM.norm>
0

>  <SCORE.heavy>
22

>  <SCORE.norm>
-0.413186

>  <RMSD>
34.087

$$$$
lig.pdb
 OpenBabel11021811523D
libRbt.so/2013.1/901 2013/11/27
 22 23  0  0  0  0  0  0  0  0999 V2000
    7.4135  -15.2308   -3.4012 C   0  0  1  0  0  0  0  0  0  0  0  0
    5.0950  -15.0640   -4.3205 C   0  0  1  0  0  0  0  0  0  0  0  0
    4.5871  -13.5978   -3.7897 C   0  0  1  0  0  0  0  0  0  0  0  0
    2.9769  -13.6270   -3.7527 C   0  0  2  0  0  0  0  0  0  0  0  0
    8.9603  -15.0379   -3.7392 C   0  0  1  0  0  0  0  0  0  0  0  0
    9.5088  -16.2764   -4.5495 C   0  0  2  0  0  0  0  0  0  0  0  0
    9.3581  -17.5876   -3.6328 C   0  0  1  0  0  0  0  0  0  0  0  0
    7.7945  -17.8717   -3.3179 C   0  0  1  0  0  0  0  0  0  0  0  0
    7.5512  -19.1323   -2.4425 C   0  0  0  0  0  0  0  0  0  0  0  0
    2.4611  -13.8413   -5.2594 C   0  0  1  0  0  0  0  0  0  0  0  0
    2.9910  -15.2820   -5.7512 C   0  0  0  0  0  0  0  0  0  0  0  0
    4.5786  -15.3223   -5.7562 C   0  0  2  0  0  0  0  0  0  0  0  0
    9.8674  -18.7855   -4.3089 F   0  0  0  0  0  0  0  0  0  0  0  0
    9.0522  -13.7196   -4.5225 N   0  0  0  0  0  0  0  0  0  0  0  0
    7.9450  -20.3511   -3.0487 N   0  0  0  0  0  0  0  0  0  0  0  0
    0.9652  -13.8918   -5.2960 N   0  0  0  0  0  0  0  0  0  0  0  0
    5.0718  -16.6279   -6.1846 N   0  0  0  0  0  0  0  0  0  0  0  0
    6.4988  -15.1456   -4.4203 O   0  0  0  0  0  0  0  0  0  0  0  0
    5.1034  -13.4024   -2.3999 O   0  0  0  0  0  0  0  0  0  0  0  0
    2.5386  -12.3884   -3.3062 O   0  0  0  0  0  0  0  0  0  0  0  0
   10.6497  -16.0839   -4.7654 O   0  0  0  0  0  0  0  0  0  0  0  0
    7.2293  -16.5752   -2.6263 O   0  0  0  0  0  0  0  0  0  0  0  0
  1  5  1  0  0  0  0
  1 18  1  6  0  0  0
  2 18  1  6  0  0  0
  2  3  1  0  0  0  0
  2 12  1  0  0  0  0
  3 19  1  1  0  0  0
  3  4  1  0  0  0  0
  4 20  1  6  0  0  0
  4 10  1  0  0  0  0
  5  6  1  0  0  0  0
  5 14  1  6  0  0  0
  6 21  1  1  0  0  0
  7 13  1  6  0  0  0
  7  6  1  0  0  0  0
  8  9  1  1  0  0  0
  8  7  1  0  0  0  0
 10 16  1  1  0  0  0
 11 10  1  0  0  0  0
 12 17  1  1  0  0  0
 12 11  1  0  0  0  0
 15  9  1  0  0  0  0
 22  8  1  0  0  0  0
 22  1  1  0  0  0  0
M  END
>  <CHROM.1>
-168.63246984,72.91884476,-63.87303740,6.34285317,-15.70439058,-4.10021325
-0.55564456,-0.11934907,0.01096837

>  <Name>
lig.pdb

>  <RI>
0

>  <Rbt.Current_Directory>
/home/itssahil/PROJECTS/Mol_Feturizer/New_Systems/rnas/5bxk

>  <Rbt.Executable>
rbdock ($Id: //depot/dev/client3/rdock/2013.1/src/exe/rbdock.cxx#4 $)

>  <Rbt.Library>
libRbt.so (2013.1, Build901 2013/11/27)

>  <Rbt.Parameter_File>
/export/apps/rDock/src/rDock_2013.1_src/data/scripts/dock_solv.prm

>  <Rbt.Receptor>
prm/blind_docking_60.prm

>  <SCORE>
-9.08056

>  <SCORE.INTER>
-6.00391

>  <SCORE.INTER.CONST>
1

>  <SCORE.INTER.POLAR>
0

>  <SCORE.INTER.ROT>
3

>  <SCORE.INTER.SOLV>
18.4169

>  <SCORE.INTER.VDW>
-15.7416

>  <SCORE.INTER.norm>
-0.272905

>  <SCORE.INTRA>
-3.07677

>  <SCORE.INTRA.DIHEDRAL>
-5.60311

>  <SCORE.INTRA.DIHEDRAL.0>
7.18044

>  <SCORE.INTRA.POLAR>
0

>  <SCORE.INTRA.POLAR.0>
0

>  <SCORE.INTRA.REPUL>
0

>  <SCORE.INTRA.REPUL.0>
0

>  <SCORE.INTRA.SOLV>
-0.552036

>  <SCORE.INTRA.SOLV.lig_0>
-72.0615

>  <SCORE.INTRA.VDW>
0.000800267

>  <SCORE.INTRA.VDW.0>
-1.54792

>  <SCORE.INTRA.norm>
-0.139853

>  <SCORE.RESTR>
0.000121005

>  <SCORE.RESTR.CAVITY>
0.000121005

>  <SCORE.RESTR.norm>
5.50022e-06

>  <SCORE.SYSTEM>
0

>  <SCORE.SYSTEM.CONST>
0

>  <SCORE.SYSTEM.DIHEDRAL>
0

>  <SCORE.SYSTEM.SOLV>
0

>  <SCORE.SYSTEM.norm>
0

>  <SCORE.heavy>
22

>  <SCORE.norm>
-0.412753

>  <RMSD>
34.091

$$$$
lig.pdb
 OpenBabel11021811523D
libRbt.so/2013.1/901 2013/11/27
 22 23  0  0  0  0  0  0  0  0999 V2000
    8.1718  -15.6823   -4.5552 C   0  0  1  0  0  0  0  0  0  0  0  0
    8.7053  -17.7811   -3.3067 C   0  0  1  0  0  0  0  0  0  0  0  0
    7.5434  -18.7609   -3.9224 C   0  0  1  0  0  0  0  0  0  0  0  0
    8.0590  -20.2794   -3.7697 C   0  0  2  0  0  0  0  0  0  0  0  0
    7.8019  -14.1366   -4.4210 C   0  0  1  0  0  0  0  0  0  0  0  0
    6.3359  -13.9645   -3.8620 C   0  0  2  0  0  0  0  0  0  0  0  0
    5.3144  -14.6331   -4.9069 C   0  0  1  0  0  0  0  0  0  0  0  0
    5.6007  -16.2232   -5.0277 C   0  0  1  0  0  0  0  0  0  0  0  0
    4.6490  -16.9576   -6.0123 C   0  0  0  0  0  0  0  0  0  0  0  0
    9.3901  -20.4310   -4.6568 C   0  0  1  0  0  0  0  0  0  0  0  0
   10.5018  -19.4445   -4.0326 C   0  0  0  0  0  0  0  0  0  0  0  0
   10.0175  -17.9342   -4.1125 C   0  0  2  0  0  0  0  0  0  0  0  0
    3.9211  -14.4966   -4.4690 F   0  0  0  0  0  0  0  0  0  0  0  0
    8.8711  -13.5331   -3.4977 N   0  0  0  0  0  0  0  0  0  0  0  0
    3.2868  -16.9551   -5.6218 N   0  0  0  0  0  0  0  0  0  0  0  0
    9.9327  -21.8222   -4.5490 N   0  0  0  0  0  0  0  0  0  0  0  0
   11.0089  -17.0312   -3.5354 N   0  0  0  0  0  0  0  0  0  0  0  0
    8.3722  -16.4154   -3.4129 O   0  0  0  0  0  0  0  0  0  0  0  0
    6.3038  -18.5822   -3.1051 O   0  0  0  0  0  0  0  0  0  0  0  0
    7.0816  -21.1155   -4.2905 O   0  0  0  0  0  0  0  0  0  0  0  0
    6.1154  -12.8106   -3.7895 O   0  0  0  0  0  0  0  0  0  0  0  0
    7.1063  -16.3803   -5.4603 O   0  0  0  0  0  0  0  0  0  0  0  0
  1  5  1  0  0  0  0
  1 18  1  1  0  0  0
  2 18  1  6  0  0  0
  2  3  1  0  0  0  0
  2 12  1  0  0  0  0
  3 19  1  1  0  0  0
  3  4  1  0  0  0  0
  4 20  1  6  0  0  0
  4 10  1  0  0  0  0
  5  6  1  0  0  0  0
  5 14  1  1  0  0  0
  6 21  1  6  0  0  0
  7 13  1  1  0  0  0
  7  6  1  0  0  0  0
  8  9  1  6  0  0  0
  8  7  1  0  0  0  0
 10 16  1  1  0  0  0
 11 10  1  0  0  0  0
 12 17  1  1  0  0  0
 12 11  1  0  0  0  0
 15  9  1  0  0  0  0
 22  8  1  0  0  0  0
 22  1  1  0  0  0  0
M  END
>  <CHROM.1>
-179.91858300,-62.85184466,-64.51016892,7.38017785,-17.02402323,-4.28241449
-2.16610632,0.23439500,-3.06007133

>  <Name>
lig.pdb

>  <RI>
0

>  <Rbt.Current_Directory>
/home/itssahil/PROJECTS/Mol_Feturizer/New_Systems/rnas/5bxk

>  <Rbt.Executable>
rbdock ($Id: //depot/dev/client3/rdock/2013.1/src/exe/rbdock.cxx#4 $)

>  <Rbt.Library>
libRbt.so (2013.1, Build901 2013/11/27)

>  <Rbt.Parameter_File>
/export/apps/rDock/src/rDock_2013.1_src/data/scripts/dock_solv.prm

>  <Rbt.Receptor>
prm/blind_docking_100.prm

>  <SCORE>
-7.5498

>  <SCORE.INTER>
-4.38993

>  <SCORE.INTER.CONST>
1

>  <SCORE.INTER.POLAR>
0

>  <SCORE.INTER.ROT>
3

>  <SCORE.INTER.SOLV>
15.7704

>  <SCORE.INTER.VDW>
-13.7834

>  <SCORE.INTER.norm>
-0.199542

>  <SCORE.INTRA>
-3.15986

>  <SCORE.INTRA.DIHEDRAL>
-6.93261

>  <SCORE.INTRA.DIHEDRAL.0>
7.18044

>  <SCORE.INTRA.POLAR>
0

>  <SCORE.INTRA.POLAR.0>
0

>  <SCORE.INTRA.REPUL>
0

>  <SCORE.INTRA.REPUL.0>
0

>  <SCORE.INTRA.SOLV>
0.506841

>  <SCORE.INTRA.SOLV.lig_0>
-72.0615

>  <SCORE.INTRA.VDW>
0.053022

>  <SCORE.INTRA.VDW.0>
-1.54792

>  <SCORE.INTRA.norm>
-0.14363

>  <SCORE.RESTR>
0

>  <SCORE.RESTR.CAVITY>
0

>  <SCORE.RESTR.norm>
0

>  <SCORE.SYSTEM>
0

>  <SCORE.SYSTEM.CONST>
0

>  <SCORE.SYSTEM.DIHEDRAL>
0

>  <SCORE.SYSTEM.SOLV>
0

>  <SCORE.SYSTEM.norm>
0

>  <SCORE.heavy>
22

>  <SCORE.norm>
-0.343173

>  <RMSD>
34.124

$$$$
lig.pdb
 OpenBabel11021811523D
libRbt.so/2013.1/901 2013/11/27
 22 23  0  0  0  0  0  0  0  0999 V2000
    7.2682  -15.2569   -3.3749 C   0  0  1  0  0  0  0  0  0  0  0  0
    4.9693  -15.1346   -4.3487 C   0  0  1  0  0  0  0  0  0  0  0  0
    4.4126  -13.6902   -3.8071 C   0  0  1  0  0  0  0  0  0  0  0  0
    2.8032  -13.7590   -3.8105 C   0  0  2  0  0  0  0  0  0  0  0  0
    8.7789  -14.8095   -3.6236 C   0  0  1  0  0  0  0  0  0  0  0  0
    9.5208  -15.8533   -4.5463 C   0  0  2  0  0  0  0  0  0  0  0  0
    9.5383  -17.2723   -3.7923 C   0  0  1  0  0  0  0  0  0  0  0  0
    8.0247  -17.8089   -3.5776 C   0  0  1  0  0  0  0  0  0  0  0  0
    7.9444  -19.1863   -2.8628 C   0  0  0  0  0  0  0  0  0  0  0  0
    2.3297  -13.9606   -5.3328 C   0  0  1  0  0  0  0  0  0  0  0  0
    2.9068  -15.3797   -5.8344 C   0  0  0  0  0  0  0  0  0  0  0  0
    4.4945  -15.3814   -5.8007 C   0  0  2  0  0  0  0  0  0  0  0  0
   10.2322  -18.2977   -4.5788 F   0  0  0  0  0  0  0  0  0  0  0  0
    8.6989  -13.4077   -4.2467 N   0  0  0  0  0  0  0  0  0  0  0  0
    6.6426  -19.7437   -2.8101 N   0  0  0  0  0  0  0  0  0  0  0  0
    0.8369  -14.0466   -5.4072 N   0  0  0  0  0  0  0  0  0  0  0  0
    5.0300  -16.6673   -6.2377 N   0  0  0  0  0  0  0  0  0  0  0  0
    6.3767  -15.1805   -4.4150 O   0  0  0  0  0  0  0  0  0  0  0  0
    4.8899  -13.5056   -2.4020 O   0  0  0  0  0  0  0  0  0  0  0  0
    2.3238  -12.5390   -3.3551 O   0  0  0  0  0  0  0  0  0  0  0  0
   10.6269  -15.4780   -4.6908 O   0  0  0  0  0  0  0  0  0  0  0  0
    7.2609  -16.6964   -2.7669 O   0  0  0  0  0  0  0  0  0  0  0  0
  1  5  1  0  0  0  0
  1 18  1  6  0  0  0
  2 18  1  6  0  0  0
  2  3  1  0  0  0  0
  2 12  1  0  0  0  0
  3 19  1  1  0  0  0
  3  4  1  0  0  0  0
  4 20  1  6  0  0  0
  4 10  1  0  0  0  0
  5  6  1  0  0  0  0
  5 14  1  6  0  0  0
  6 21  1  1  0  0  0
  7 13  1  6  0  0  0
  7  6  1  0  0  0  0
  8  9  1  1  0  0  0
  8  7  1  0  0  0  0
 10 16  1  1  0  0  0
 11 10  1  0  0  0  0
 12 17  1  1  0  0  0
 12 11  1  0  0  0  0
 15  9  1  0  0  0  0
 22  8  1  0  0  0  0
 22  1  1  0  0  0  0
M  END
>  <CHROM.1>
-159.56000207,72.72314947,-172.82044278,6.24482843,-15.61715158,-4.14977508
-0.46574444,-0.11535648,0.02834550

>  <Name>
lig.pdb

>  <RI>
0

>  <Rbt.Current_Directory>
/home/itssahil/PROJECTS/Mol_Feturizer/New_Systems/rnas/5bxk

>  <Rbt.Executable>
rbdock ($Id: //depot/dev/client3/rdock/2013.1/src/exe/rbdock.cxx#4 $)

>  <Rbt.Library>
libRbt.so (2013.1, Build901 2013/11/27)

>  <Rbt.Parameter_File>
/export/apps/rDock/src/rDock_2013.1_src/data/scripts/dock_solv.prm

>  <Rbt.Receptor>
prm/blind_docking_100.prm

>  <SCORE>
-8.33975

>  <SCORE.INTER>
-5.56174

>  <SCORE.INTER.CONST>
1

>  <SCORE.INTER.POLAR>
0

>  <SCORE.INTER.ROT>
3

>  <SCORE.INTER.SOLV>
19.3839

>  <SCORE.INTER.VDW>
-15.7691

>  <SCORE.INTER.norm>
-0.252806

>  <SCORE.INTRA>
-2.77801

>  <SCORE.INTRA.DIHEDRAL>
-4.28716

>  <SCORE.INTRA.DIHEDRAL.0>
7.18044

>  <SCORE.INTRA.POLAR>
0

>  <SCORE.INTRA.POLAR.0>
0

>  <SCORE.INTRA.REPUL>
0

>  <SCORE.INTRA.REPUL.0>
0

>  <SCORE.INTRA.SOLV>
-1.28806

>  <SCORE.INTRA.SOLV.lig_0>
-72.0615

>  <SCORE.INTRA.VDW>
0.00959785

>  <SCORE.INTRA.VDW.0>
-1.54792

>  <SCORE.INTRA.norm>
-0.126273

>  <SCORE.RESTR>
0

>  <SCORE.RESTR.CAVITY>
0

>  <SCORE.RESTR.norm>
0

>  <SCORE.SYSTEM>
0

>  <SCORE.SYSTEM.CONST>
0

>  <SCORE.SYSTEM.DIHEDRAL>
0

>  <SCORE.SYSTEM.SOLV>
0

>  <SCORE.SYSTEM.norm>
0

>  <SCORE.heavy>
22

>  <SCORE.norm>
-0.37908

>  <RMSD>
34.166

$$$$
lig.pdb
 OpenBabel11021811523D
libRbt.so/2013.1/901 2013/11/27
 22 23  0  0  0  0  0  0  0  0999 V2000
    5.5204  -17.6949   -4.8906 C   0  0  1  0  0  0  0  0  0  0  0  0
    7.3528  -16.4683   -3.7131 C   0  0  1  0  0  0  0  0  0  0  0  0
    8.4336  -17.7007   -3.7586 C   0  0  1  0  0  0  0  0  0  0  0  0
    9.9028  -17.0636   -3.5834 C   0  0  2  0  0  0  0  0  0  0  0  0
    3.9383  -17.8367   -5.0347 C   0  0  1  0  0  0  0  0  0  0  0  0
    3.3491  -18.6956   -3.8487 C   0  0  2  0  0  0  0  0  0  0  0  0
    3.9907  -20.1671   -3.9223 C   0  0  1  0  0  0  0  0  0  0  0  0
    5.5949  -20.0877   -3.7094 C   0  0  1  0  0  0  0  0  0  0  0  0
    6.3015  -21.4709   -3.7542 C   0  0  0  0  0  0  0  0  0  0  0  0
   10.1647  -16.0963   -4.8395 C   0  0  1  0  0  0  0  0  0  0  0  0
    9.0768  -14.9088   -4.7700 C   0  0  0  0  0  0  0  0  0  0  0  0
    7.6042  -15.4917   -4.8869 C   0  0  2  0  0  0  0  0  0  0  0  0
    3.4760  -21.0388   -2.8609 F   0  0  0  0  0  0  0  0  0  0  0  0
    3.3942  -16.4005   -5.0637 N   0  0  0  0  0  0  0  0  0  0  0  0
    7.7033  -21.4191   -3.5536 N   0  0  0  0  0  0  0  0  0  0  0  0
   11.5144  -15.4572   -4.7327 N   0  0  0  0  0  0  0  0  0  0  0  0
    6.6079  -14.4275   -4.8092 N   0  0  0  0  0  0  0  0  0  0  0  0
    6.0246  -16.9081   -3.8860 O   0  0  0  0  0  0  0  0  0  0  0  0
    8.1540  -18.6068   -2.6023 O   0  0  0  0  0  0  0  0  0  0  0  0
   10.8242  -18.1004   -3.6227 O   0  0  0  0  0  0  0  0  0  0  0  0
    2.1854  -18.7723   -4.0082 O   0  0  0  0  0  0  0  0  0  0  0  0
    6.1517  -19.1227   -4.8217 O   0  0  0  0  0  0  0  0  0  0  0  0
  1  5  1  0  0  0  0
  1 18  1  1  0  0  0
  2 18  1  6  0  0  0
  2  3  1  0  0  0  0
  2 12  1  0  0  0  0
  3 19  1  1  0  0  0
  3  4  1  0  0  0  0
  4 20  1  6  0  0  0
  4 10  1  0  0  0  0
  5  6  1  0  0  0  0
  5 14  1  1  0  0  0
  6 21  1  6  0  0  0
  7 13  1  1  0  0  0
  7  6  1  0  0  0  0
  8  9  1  6  0  0  0
  8  7  1  0  0  0  0
 10 16  1  1  0  0  0
 11 10  1  0  0  0  0
 12 17  1  1  0  0  0
 12 11  1  0  0  0  0
 15  9  1  0  0  0  0
 22  8  1  0  0  0  0
 22  1  1  0  0  0  0
M  END
>  <CHROM.1>
-168.48690049,-52.38535709,-179.28346148,6.64534104,-17.97425715,-4.08774679
2.62252166,0.08274924,2.87318038

>  <Name>
lig.pdb

>  <RI>
0

>  <Rbt.Current_Directory>
/home/itssahil/PROJECTS/Mol_Feturizer/New_Systems/rnas/5bxk

>  <Rbt.Executable>
rbdock ($Id: //depot/dev/client3/rdock/2013.1/src/exe/rbdock.cxx#4 $)

>  <Rbt.Library>
libRbt.so (2013.1, Build901 2013/11/27)

>  <Rbt.Parameter_File>
/export/apps/rDock/src/rDock_2013.1_src/data/scripts/dock_solv.prm

>  <Rbt.Receptor>
prm/blind_docking_100.prm

>  <SCORE>
-6.46206

>  <SCORE.INTER>
-4.02324

>  <SCORE.INTER.CONST>
1

>  <SCORE.INTER.POLAR>
0

>  <SCORE.INTER.ROT>
3

>  <SCORE.INTER.SOLV>
14.6871

>  <SCORE.INTER.VDW>
-13.1779

>  <SCORE.INTER.norm>
-0.182875

>  <SCORE.INTRA>
-2.43881

>  <SCORE.INTRA.DIHEDRAL>
-6.1498

>  <SCORE.INTRA.DIHEDRAL.0>
7.18044

>  <SCORE.INTRA.POLAR>
0

>  <SCORE.INTRA.POLAR.0>
0

>  <SCORE.INTRA.REPUL>
0

>  <SCORE.INTRA.REPUL.0>
0

>  <SCORE.INTRA.SOLV>
1.72829

>  <SCORE.INTRA.SOLV.lig_0>
-72.0615

>  <SCORE.INTRA.VDW>
-0.228056

>  <SCORE.INTRA.VDW.0>
-1.54792

>  <SCORE.INTRA.norm>
-0.110855

>  <SCORE.RESTR>
0

>  <SCORE.RESTR.CAVITY>
0

>  <SCORE.RESTR.norm>
0

>  <SCORE.SYSTEM>
0

>  <SCORE.SYSTEM.CONST>
0

>  <SCORE.SYSTEM.DIHEDRAL>
0

>  <SCORE.SYSTEM.SOLV>
0

>  <SCORE.SYSTEM.norm>
0

>  <SCORE.heavy>
22

>  <SCORE.norm>
-0.29373

>  <RMSD>
34.174

$$$$
lig.pdb
 OpenBabel11021811523D
libRbt.so/2013.1/901 2013/11/27
 22 23  0  0  0  0  0  0  0  0999 V2000
    8.8679  -16.3278   -3.6951 C   0  0  1  0  0  0  0  0  0  0  0  0
    6.7687  -17.6139   -4.1286 C   0  0  1  0  0  0  0  0  0  0  0  0
    5.5991  -17.6093   -5.2780 C   0  0  1  0  0  0  0  0  0  0  0  0
    4.3855  -18.5207   -4.7382 C   0  0  2  0  0  0  0  0  0  0  0  0
    8.5530  -14.9697   -2.9202 C   0  0  1  0  0  0  0  0  0  0  0  0
    8.5001  -13.7564   -3.9283 C   0  0  2  0  0  0  0  0  0  0  0  0
    9.9423  -13.6120   -4.6222 C   0  0  1  0  0  0  0  0  0  0  0  0
   10.2822  -14.9408   -5.4846 C   0  0  1  0  0  0  0  0  0  0  0  0
   11.6589  -14.8855   -6.2030 C   0  0  0  0  0  0  0  0  0  0  0  0
    4.9419  -20.0186   -4.5692 C   0  0  1  0  0  0  0  0  0  0  0  0
    6.0971  -19.9811   -3.4456 C   0  0  0  0  0  0  0  0  0  0  0  0
    7.2982  -19.0513   -3.9089 C   0  0  2  0  0  0  0  0  0  0  0  0
    9.9832  -12.4874   -5.5631 F   0  0  0  0  0  0  0  0  0  0  0  0
    7.2197  -15.2060   -2.1947 N   0  0  0  0  0  0  0  0  0  0  0  0
   12.7629  -14.6802   -5.3386 N   0  0  0  0  0  0  0  0  0  0  0  0
    3.8632  -20.9204   -4.0549 N   0  0  0  0  0  0  0  0  0  0  0  0
    8.3447  -18.9957   -2.8925 N   0  0  0  0  0  0  0  0  0  0  0  0
    7.9012  -16.8646   -4.5074 O   0  0  0  0  0  0  0  0  0  0  0  0
    5.1168  -16.2036   -5.4444 O   0  0  0  0  0  0  0  0  0  0  0  0
    3.3916  -18.5236   -5.7065 O   0  0  0  0  0  0  0  0  0  0  0  0
    8.2715  -12.7847   -3.3046 O   0  0  0  0  0  0  0  0  0  0  0  0
   10.2026  -16.1584   -4.4899 O   0  0  0  0  0  0  0  0  0  0  0  0
  1  5  1  0  0  0  0
  1 18  1  6  0  0  0
  2 18  1  6  0  0  0
  2  3  1  0  0  0  0
  2 12  1  0  0  0  0
  3 19  1  1  0  0  0
  3  4  1  0  0  0  0
  4 20  1  6  0  0  0
  4 10  1  0  0  0  0
  5  6  1  0  0  0  0
  5 14  1  6  0  0  0
  6 21  1  1  0  0  0
  7 13  1  6  0  0  0
  7  6  1  0  0  0  0
  8  9  1  1  0  0  0
  8  7  1  0  0  0  0
 10 16  1  1  0  0  0
 11 10  1  0  0  0  0
 12 17  1  1  0  0  0
 12 11  1  0  0  0  0
 15  9  1  0  0  0  0
 22  8  1  0  0  0  0
 22  1  1  0  0  0  0
M  END
>  <CHROM.1>
-78.92509866,159.16684055,57.59963981,7.74408886,-16.46892589,-4.41306166
-0.76690905,-0.00064774,3.07288642

>  <Name>
lig.pdb

>  <RI>
0

>  <Rbt.Current_Directory>
/home/itssahil/PROJECTS/Mol_Feturizer/New_Systems/rnas/5bxk

>  <Rbt.Executable>
rbdock ($Id: //depot/dev/client3/rdock/2013.1/src/exe/rbdock.cxx#4 $)

>  <Rbt.Library>
libRbt.so (2013.1, Build901 2013/11/27)

>  <Rbt.Parameter_File>
/export/apps/rDock/src/rDock_2013.1_src/data/scripts/dock_solv.prm

>  <Rbt.Receptor>
prm/blind_docking_100.prm

>  <SCORE>
-6.05134

>  <SCORE.INTER>
-5.68891

>  <SCORE.INTER.CONST>
1

>  <SCORE.INTER.POLAR>
0

>  <SCORE.INTER.ROT>
3

>  <SCORE.INTER.SOLV>
19.8012

>  <SCORE.INTER.VDW>
-15.993

>  <SCORE.INTER.norm>
-0.258587

>  <SCORE.INTRA>
-0.362438

>  <SCORE.INTRA.DIHEDRAL>
-3.52033

>  <SCORE.INTRA.DIHEDRAL.0>
7.18044

>  <SCORE.INTRA.POLAR>
0

>  <SCORE.INTRA.POLAR.0>
0

>  <SCORE.INTRA.REPUL>
0

>  <SCORE.INTRA.REPUL.0>
0

>  <SCORE.INTRA.SOLV>
2.21479

>  <SCORE.INTRA.SOLV.lig_0>
-72.0615

>  <SCORE.INTRA.VDW>
0.290333

>  <SCORE.INTRA.VDW.0>
-1.54792

>  <SCORE.INTRA.norm>
-0.0164745

>  <SCORE.RESTR>
0

>  <SCORE.RESTR.CAVITY>
0

>  <SCORE.RESTR.norm>
0

>  <SCORE.SYSTEM>
0

>  <SCORE.SYSTEM.CONST>
0

>  <SCORE.SYSTEM.DIHEDRAL>
0

>  <SCORE.SYSTEM.SOLV>
0

>  <SCORE.SYSTEM.norm>
0

>  <SCORE.heavy>
22

>  <SCORE.norm>
-0.275061

>  <RMSD>
34.187

$$$$
lig.pdb
 OpenBabel11021811523D
libRbt.so/2013.1/901 2013/11/27
 22 23  0  0  0  0  0  0  0  0999 V2000
    4.4597  -14.1572   -4.4480 C   0  0  1  0  0  0  0  0  0  0  0  0
    6.7965  -14.9982   -4.1641 C   0  0  1  0  0  0  0  0  0  0  0  0
    7.7515  -13.7883   -3.6045 C   0  0  1  0  0  0  0  0  0  0  0  0
    9.2594  -14.1039   -4.0755 C   0  0  2  0  0  0  0  0  0  0  0  0
    3.0554  -13.9421   -3.7228 C   0  0  1  0  0  0  0  0  0  0  0  0
    2.2677  -15.3065   -3.6256 C   0  0  2  0  0  0  0  0  0  0  0  0
    1.9837  -15.8340   -5.1167 C   0  0  1  0  0  0  0  0  0  0  0  0
    3.3817  -16.1377   -5.8770 C   0  0  1  0  0  0  0  0  0  0  0  0
    3.2036  -16.6650   -7.3278 C   0  0  0  0  0  0  0  0  0  0  0  0
    9.7061  -15.4821   -3.3804 C   0  0  1  0  0  0  0  0  0  0  0  0
    8.7378  -16.6423   -3.9414 C   0  0  0  0  0  0  0  0  0  0  0  0
    7.2276  -16.3502   -3.5466 C   0  0  2  0  0  0  0  0  0  0  0  0
    1.2328  -17.0941   -5.1141 F   0  0  0  0  0  0  0  0  0  0  0  0
    3.3863  -13.3407   -2.3486 N   0  0  0  0  0  0  0  0  0  0  0  0
    2.6009  -17.9445   -7.4161 N   0  0  0  0  0  0  0  0  0  0  0  0
   11.1005  -15.8435   -3.7881 N   0  0  0  0  0  0  0  0  0  0  0  0
    6.3376  -17.3858   -4.0629 N   0  0  0  0  0  0  0  0  0  0  0  0
    5.4478  -14.8407   -3.7853 O   0  0  0  0  0  0  0  0  0  0  0  0
    7.3006  -12.5103   -4.2368 O   0  0  0  0  0  0  0  0  0  0  0  0
   10.0750  -13.0850   -3.6041 O   0  0  0  0  0  0  0  0  0  0  0  0
    1.2424  -15.0884   -3.0902 O   0  0  0  0  0  0  0  0  0  0  0  0
    4.2111  -14.7999   -5.8505 O   0  0  0  0  0  0  0  0  0  0  0  0
  1  5  1  0  0  0  0
  1 18  1  1  0  0  0
  2 18  1  1  0  0  0
  2  3  1  0  0  0  0
  2 12  1  0  0  0  0
  3 19  1  6  0  0  0
  3  4  1  0  0  0  0
  4 20  1  1  0  0  0
  4 10  1  0  0  0  0
  5  6  1  0  0  0  0
  5 14  1  1  0  0  0
  6 21  1  6  0  0  0
  7 13  1  1  0  0  0
  7  6  1  0  0  0  0
  8  9  1  6  0  0  0
  8  7  1  0  0  0  0
 10 16  1  6  0  0  0
 11 10  1  0  0  0  0
 12 17  1  6  0  0  0
 12 11  1  0  0  0  0
 15  9  1  0  0  0  0
 22  8  1  0  0  0  0
 22  1  1  0  0  0  0
M  END
>  <CHROM.1>
-171.41601377,88.51133502,-66.30189136,5.42373930,-15.24229604,-4.38002223
2.88510538,0.05034557,-2.54276240

>  <Name>
lig.pdb

>  <RI>
0

>  <Rbt.Current_Directory>
/home/itssahil/PROJECTS/Mol_Feturizer/New_Systems/rnas/5bxk

>  <Rbt.Executable>
rbdock ($Id: //depot/dev/client3/rdock/2013.1/src/exe/rbdock.cxx#4 $)

>  <Rbt.Library>
libRbt.so (2013.1, Build901 2013/11/27)

>  <Rbt.Parameter_File>
/export/apps/rDock/src/rDock_2013.1_src/data/scripts/dock_solv.prm

>  <Rbt.Receptor>
prm/blind_docking_20.prm

>  <SCORE>
-7.39454

>  <SCORE.INTER>
-5.5874

>  <SCORE.INTER.CONST>
1

>  <SCORE.INTER.POLAR>
0

>  <SCORE.INTER.ROT>
3

>  <SCORE.INTER.SOLV>
16.9112

>  <SCORE.INTER.VDW>
-14.962

>  <SCORE.INTER.norm>
-0.253973

>  <SCORE.INTRA>
-1.80768

>  <SCORE.INTRA.DIHEDRAL>
-3.24011

>  <SCORE.INTRA.DIHEDRAL.0>
7.18044

>  <SCORE.INTRA.POLAR>
0

>  <SCORE.INTRA.POLAR.0>
0

>  <SCORE.INTRA.REPUL>
0

>  <SCORE.INTRA.REPUL.0>
0

>  <SCORE.INTRA.SOLV>
-0.0238295

>  <SCORE.INTRA.SOLV.lig_0>
-72.0615

>  <SCORE.INTRA.VDW>
-0.175707

>  <SCORE.INTRA.VDW.0>
-1.54792

>  <SCORE.INTRA.norm>
-0.0821672

>  <SCORE.RESTR>
0.000534051

>  <SCORE.RESTR.CAVITY>
0.000534051

>  <SCORE.RESTR.norm>
2.42751e-05

>  <SCORE.SYSTEM>
0

>  <SCORE.SYSTEM.CONST>
0

>  <SCORE.SYSTEM.DIHEDRAL>
0

>  <SCORE.SYSTEM.SOLV>
0

>  <SCORE.SYSTEM.norm>
0

>  <SCORE.heavy>
22

>  <SCORE.norm>
-0.336116

>  <RMSD>
34.188

$$$$
lig.pdb
 OpenBabel11021811523D
libRbt.so/2013.1/901 2013/11/27
 22 23  0  0  0  0  0  0  0  0999 V2000
    8.2872  -16.5948   -3.4371 C   0  0  1  0  0  0  0  0  0  0  0  0
    6.0457  -16.4417   -4.5328 C   0  0  1  0  0  0  0  0  0  0  0  0
    5.6077  -14.8621   -4.4847 C   0  0  1  0  0  0  0  0  0  0  0  0
    3.9987  -14.8035   -4.5378 C   0  0  2  0  0  0  0  0  0  0  0  0
    9.8604  -16.5199   -3.6892 C   0  0  1  0  0  0  0  0  0  0  0  0
   10.3921  -17.8838   -4.2796 C   0  0  2  0  0  0  0  0  0  0  0  0
   10.1140  -19.0437   -3.2028 C   0  0  1  0  0  0  0  0  0  0  0  0
    8.5206  -19.2113   -2.9620 C   0  0  1  0  0  0  0  0  0  0  0  0
    8.1555  -20.3230   -1.9396 C   0  0  0  0  0  0  0  0  0  0  0  0
    3.5369  -15.4281   -5.9444 C   0  0  1  0  0  0  0  0  0  0  0  0
    3.9968  -16.9730   -5.9614 C   0  0  0  0  0  0  0  0  0  0  0  0
    5.5774  -17.0874   -5.8589 C   0  0  2  0  0  0  0  0  0  0  0  0
   10.6004  -20.3467   -3.6689 F   0  0  0  0  0  0  0  0  0  0  0  0
   10.0719  -15.3315   -4.6392 N   0  0  0  0  0  0  0  0  0  0  0  0
    6.7664  -20.5767   -1.8214 N   0  0  0  0  0  0  0  0  0  0  0  0
    2.0439  -15.4169   -6.0546 N   0  0  0  0  0  0  0  0  0  0  0  0
    6.0063  -18.4828   -5.8569 N   0  0  0  0  0  0  0  0  0  0  0  0
    7.4447  -16.6149   -4.5198 O   0  0  0  0  0  0  0  0  0  0  0  0
    6.0739  -14.2901   -3.1841 O   0  0  0  0  0  0  0  0  0  0  0  0
    3.6196  -13.4692   -4.4995 O   0  0  0  0  0  0  0  0  0  0  0  0
   11.5531  -17.7742   -4.4395 O   0  0  0  0  0  0  0  0  0  0  0  0
    7.9829  -17.8063   -2.4982 O   0  0  0  0  0  0  0  0  0  0  0  0
  1  5  1  0  0  0  0
  1 18  1  6  0  0  0
  2 18  1  6  0  0  0
  2  3  1  0  0  0  0
  2 12  1  0  0  0  0
  3 19  1  1  0  0  0
  3  4  1  0  0  0  0
  4 20  1  6  0  0  0
  4 10  1  0  0  0  0
  5  6  1  0  0  0  0
  5 14  1  6  0  0  0
  6 21  1  1  0  0  0
  7 13  1  6  0  0  0
  7  6  1  0  0  0  0
  8  9  1  1  0  0  0
  8  7  1  0  0  0  0
 10 16  1  1  0  0  0
 11 10  1  0  0  0  0
 12 17  1  1  0  0  0
 12 11  1  0  0  0  0
 15  9  1  0  0  0  0
 22  8  1  0  0  0  0
 22  1  1  0  0  0  0
M  END
>  <CHROM.1>
-167.76570585,81.41047926,-173.77128316,7.16264833,-17.08542508,-4.15942264
-0.59627089,-0.13929827,-0.24557844

>  <Name>
lig.pdb

>  <RI>
0

>  <Rbt.Current_Directory>
/home/itssahil/PROJECTS/Mol_Feturizer/New_Systems/rnas/5bxk

>  <Rbt.Executable>
rbdock ($Id: //depot/dev/client3/rdock/2013.1/src/exe/rbdock.cxx#4 $)

>  <Rbt.Library>
libRbt.so (2013.1, Build901 2013/11/27)

>  <Rbt.Parameter_File>
/export/apps/rDock/src/rDock_2013.1_src/data/scripts/dock_solv.prm

>  <Rbt.Receptor>
prm/blind_docking_80.prm

>  <SCORE>
-6.16537

>  <SCORE.INTER>
-3.35329

>  <SCORE.INTER.CONST>
1

>  <SCORE.INTER.POLAR>
0

>  <SCORE.INTER.ROT>
3

>  <SCORE.INTER.SOLV>
17.7858

>  <SCORE.INTER.VDW>
-13.7641

>  <SCORE.INTER.norm>
-0.152422

>  <SCORE.INTRA>
-2.81208

>  <SCORE.INTRA.DIHEDRAL>
-4.18265

>  <SCORE.INTRA.DIHEDRAL.0>
7.18044

>  <SCORE.INTRA.POLAR>
0

>  <SCORE.INTRA.POLAR.0>
0

>  <SCORE.INTRA.REPUL>
0

>  <SCORE.INTRA.REPUL.0>
0

>  <SCORE.INTRA.SOLV>
-1.20825

>  <SCORE.INTRA.SOLV.lig_0>
-72.0615

>  <SCORE.INTRA.VDW>
-0.116633

>  <SCORE.INTRA.VDW.0>
-1.54792

>  <SCORE.INTRA.norm>
-0.127822

>  <SCORE.RESTR>
0

>  <SCORE.RESTR.CAVITY>
0

>  <SCORE.RESTR.norm>
0

>  <SCORE.SYSTEM>
0

>  <SCORE.SYSTEM.CONST>
0

>  <SCORE.SYSTEM.DIHEDRAL>
0

>  <SCORE.SYSTEM.SOLV>
0

>  <SCORE.SYSTEM.norm>
0

>  <SCORE.heavy>
22

>  <SCORE.norm>
-0.280244

>  <RMSD>
34.197

$$$$
lig.pdb
 OpenBabel11021811523D
libRbt.so/2013.1/901 2013/11/27
 22 23  0  0  0  0  0  0  0  0999 V2000
    7.0899  -14.8032   -3.4707 C   0  0  1  0  0  0  0  0  0  0  0  0
    4.7450  -14.8815   -4.3333 C   0  0  1  0  0  0  0  0  0  0  0  0
    4.0925  -13.5435   -3.6454 C   0  0  1  0  0  0  0  0  0  0  0  0
    2.4974  -13.7597   -3.5828 C   0  0  2  0  0  0  0  0  0  0  0  0
    8.5267  -14.1776   -3.7678 C   0  0  1  0  0  0  0  0  0  0  0  0
    9.3352  -15.0961   -4.7648 C   0  0  2  0  0  0  0  0  0  0  0  0
    9.5490  -16.5299   -4.0714 C   0  0  1  0  0  0  0  0  0  0  0  0
    8.1177  -17.2432   -3.8118 C   0  0  1  0  0  0  0  0  0  0  0  0
    8.2277  -18.6455   -3.1514 C   0  0  0  0  0  0  0  0  0  0  0  0
    1.9646  -13.8792   -5.0940 C   0  0  1  0  0  0  0  0  0  0  0  0
    2.6373  -15.1935   -5.7410 C   0  0  0  0  0  0  0  0  0  0  0  0
    4.2186  -15.0517   -5.7786 C   0  0  2  0  0  0  0  0  0  0  0  0
   10.3146  -17.4405   -4.9295 F   0  0  0  0  0  0  0  0  0  0  0  0
    8.2592  -12.7727   -4.3286 N   0  0  0  0  0  0  0  0  0  0  0  0
    6.9936  -19.3295   -3.0202 N   0  0  0  0  0  0  0  0  0  0  0  0
    0.4833  -14.0960   -5.1088 N   0  0  0  0  0  0  0  0  0  0  0  0
    4.8417  -16.2429   -6.3479 N   0  0  0  0  0  0  0  0  0  0  0  0
    6.1456  -14.7920   -4.4661 O   0  0  0  0  0  0  0  0  0  0  0  0
    4.6244  -13.4309   -2.2523 O   0  0  0  0  0  0  0  0  0  0  0  0
    1.9369  -12.6303   -3.0033 O   0  0  0  0  0  0  0  0  0  0  0  0
   10.3838  -14.5920   -4.9428 O   0  0  0  0  0  0  0  0  0  0  0  0
    7.2742  -16.2550   -2.9228 O   0  0  0  0  0  0  0  0  0  0  0  0
  1  5  1  0  0  0  0
  1 18  1  6  0  0  0
  2 18  1  6  0  0  0
  2  3  1  0  0  0  0
  2 12  1  0  0  0  0
  3 19  1  1  0  0  0
  3  4  1  0  0  0  0
  4 20  1  6  0  0  0
  4 10  1  0  0  0  0
  5  6  1  0  0  0  0
  5 14  1  6  0  0  0
  6 21  1  1  0  0  0
  7 13  1  6  0  0  0
  7  6  1  0  0  0  0
  8  9  1  1  0  0  0
  8  7  1  0  0  0  0
 10 16  1  1  0  0  0
 11 10  1  0  0  0  0
 12 17  1  1  0  0  0
 12 11  1  0  0  0  0
 15  9  1  0  0  0  0
 22  8  1  0  0  0  0
 22  1  1  0  0  0  0
M  END
>  <CHROM.1>
-158.10519995,69.13974243,-174.97694300,6.08212808,-15.21751079,-4.19498064
-0.36794359,-0.05424118,0.06577378

>  <Name>
lig.pdb

>  <RI>
0

>  <Rbt.Current_Directory>
/home/itssahil/PROJECTS/Mol_Feturizer/New_Systems/rnas/5bxk

>  <Rbt.Executable>
rbdock ($Id: //depot/dev/client3/rdock/2013.1/src/exe/rbdock.cxx#4 $)

>  <Rbt.Library>
libRbt.so (2013.1, Build901 2013/11/27)

>  <Rbt.Parameter_File>
/export/apps/rDock/src/rDock_2013.1_src/data/scripts/dock_solv.prm

>  <Rbt.Receptor>
prm/blind_docking_60.prm

>  <SCORE>
-8.53543

>  <SCORE.INTER>
-5.66202

>  <SCORE.INTER.CONST>
1

>  <SCORE.INTER.POLAR>
0

>  <SCORE.INTER.ROT>
3

>  <SCORE.INTER.SOLV>
20.4773

>  <SCORE.INTER.VDW>
-16.2004

>  <SCORE.INTER.norm>
-0.257364

>  <SCORE.INTRA>
-2.87341

>  <SCORE.INTRA.DIHEDRAL>
-4.51022

>  <SCORE.INTRA.DIHEDRAL.0>
7.18044

>  <SCORE.INTRA.POLAR>
0

>  <SCORE.INTRA.POLAR.0>
0

>  <SCORE.INTRA.REPUL>
0

>  <SCORE.INTRA.REPUL.0>
0

>  <SCORE.INTRA.SOLV>
-1.35835

>  <SCORE.INTRA.SOLV.lig_0>
-72.0615

>  <SCORE.INTRA.VDW>
0.0608761

>  <SCORE.INTRA.VDW.0>
-1.54792

>  <SCORE.INTRA.norm>
-0.130609

>  <SCORE.RESTR>
0

>  <SCORE.RESTR.CAVITY>
0

>  <SCORE.RESTR.norm>
0

>  <SCORE.SYSTEM>
0

>  <SCORE.SYSTEM.CONST>
0

>  <SCORE.SYSTEM.DIHEDRAL>
0

>  <SCORE.SYSTEM.SOLV>
0

>  <SCORE.SYSTEM.norm>
0

>  <SCORE.heavy>
22

>  <SCORE.norm>
-0.387974

>  <RMSD>
34.199

$$$$
lig.pdb
 OpenBabel11021811523D
libRbt.so/2013.1/901 2013/11/27
 22 23  0  0  0  0  0  0  0  0999 V2000
    5.3989  -17.8112   -4.8956 C   0  0  1  0  0  0  0  0  0  0  0  0
    7.1653  -16.5144   -3.6929 C   0  0  1  0  0  0  0  0  0  0  0  0
    8.2772  -17.7197   -3.7014 C   0  0  1  0  0  0  0  0  0  0  0  0
    9.7252  -17.0447   -3.4939 C   0  0  2  0  0  0  0  0  0  0  0  0
    3.8257  -17.9979   -5.0811 C   0  0  1  0  0  0  0  0  0  0  0  0
    3.2244  -18.8443   -3.8923 C   0  0  2  0  0  0  0  0  0  0  0  0
    3.9054  -20.2997   -3.9125 C   0  0  1  0  0  0  0  0  0  0  0  0
    5.5001  -20.1733   -3.6560 C   0  0  1  0  0  0  0  0  0  0  0  0
    6.2429  -21.5381   -3.6476 C   0  0  0  0  0  0  0  0  0  0  0  0
    9.9950  -16.0801   -4.7504 C   0  0  1  0  0  0  0  0  0  0  0  0
    8.8765  -14.9198   -4.7178 C   0  0  0  0  0  0  0  0  0  0  0  0
    7.4223  -15.5401   -4.8675 C   0  0  2  0  0  0  0  0  0  0  0  0
    3.3825  -21.1599   -2.8456 F   0  0  0  0  0  0  0  0  0  0  0  0
    3.2462  -16.5775   -5.1600 N   0  0  0  0  0  0  0  0  0  0  0  0
    5.8641  -22.4047   -2.5923 N   0  0  0  0  0  0  0  0  0  0  0  0
   11.3252  -15.4067   -4.6143 N   0  0  0  0  0  0  0  0  0  0  0  0
    6.3982  -14.5006   -4.8233 N   0  0  0  0  0  0  0  0  0  0  0  0
    5.8533  -16.9885   -3.8960 O   0  0  0  0  0  0  0  0  0  0  0  0
    7.9907  -18.6242   -2.5456 O   0  0  0  0  0  0  0  0  0  0  0  0
   10.6727  -18.0584   -3.5018 O   0  0  0  0  0  0  0  0  0  0  0  0
    2.0683  -18.9552   -4.0830 O   0  0  0  0  0  0  0  0  0  0  0  0
    6.0643  -19.2200   -4.7746 O   0  0  0  0  0  0  0  0  0  0  0  0
  1  5  1  0  0  0  0
  1 18  1  1  0  0  0
  2 18  1  6  0  0  0
  2  3  1  0  0  0  0
  2 12  1  0  0  0  0
  3 19  1  1  0  0  0
  3  4  1  0  0  0  0
  4 20  1  6  0  0  0
  4 10  1  0  0  0  0
  5  6  1  0  0  0  0
  5 14  1  1  0  0  0
  6 21  1  6  0  0  0
  7 13  1  1  0  0  0
  7  6  1  0  0  0  0
  8  9  1  6  0  0  0
  8  7  1  0  0  0  0
 10 16  1  1  0  0  0
 11 10  1  0  0  0  0
 12 17  1  1  0  0  0
 12 11  1  0  0  0  0
 15  9  1  0  0  0  0
 22  8  1  0  0  0  0
 22  1  1  0  0  0  0
M  END
>  <CHROM.1>
-168.76358148,-51.29958364,-64.45001937,6.42746063,-18.08529499,-4.01909306
2.54399236,0.13058211,2.82097360

>  <Name>
lig.pdb

>  <RI>
0

>  <Rbt.Current_Directory>
/home/itssahil/PROJECTS/Mol_Feturizer/New_Systems/rnas/5bxk

>  <Rbt.Executable>
rbdock ($Id: //depot/dev/client3/rdock/2013.1/src/exe/rbdock.cxx#4 $)

>  <Rbt.Library>
libRbt.so (2013.1, Build901 2013/11/27)

>  <Rbt.Parameter_File>
/export/apps/rDock/src/rDock_2013.1_src/data/scripts/dock_solv.prm

>  <Rbt.Receptor>
prm/blind_docking_100.prm

>  <SCORE>
-6.71424

>  <SCORE.INTER>
-4.21528

>  <SCORE.INTER.CONST>
1

>  <SCORE.INTER.POLAR>
0

>  <SCORE.INTER.ROT>
3

>  <SCORE.INTER.SOLV>
13.7165

>  <SCORE.INTER.VDW>
-12.9824

>  <SCORE.INTER.norm>
-0.191603

>  <SCORE.INTRA>
-2.49896

>  <SCORE.INTRA.DIHEDRAL>
-6.0248

>  <SCORE.INTRA.DIHEDRAL.0>
7.18044

>  <SCORE.INTRA.POLAR>
0

>  <SCORE.INTRA.POLAR.0>
0

>  <SCORE.INTRA.REPUL>
0

>  <SCORE.INTRA.REPUL.0>
0

>  <SCORE.INTRA.SOLV>
1.01128

>  <SCORE.INTRA.SOLV.lig_0>
-72.0615

>  <SCORE.INTRA.VDW>
0.00780013

>  <SCORE.INTRA.VDW.0>
-1.54792

>  <SCORE.INTRA.norm>
-0.113589

>  <SCORE.RESTR>
0

>  <SCORE.RESTR.CAVITY>
0

>  <SCORE.RESTR.norm>
0

>  <SCORE.SYSTEM>
0

>  <SCORE.SYSTEM.CONST>
0

>  <SCORE.SYSTEM.DIHEDRAL>
0

>  <SCORE.SYSTEM.SOLV>
0

>  <SCORE.SYSTEM.norm>
0

>  <SCORE.heavy>
22

>  <SCORE.norm>
-0.305193

>  <RMSD>
34.220

$$$$
lig.pdb
 OpenBabel11021811523D
libRbt.so/2013.1/901 2013/11/27
 22 23  0  0  0  0  0  0  0  0999 V2000
    8.3608  -16.9274   -3.4889 C   0  0  1  0  0  0  0  0  0  0  0  0
    6.1559  -16.8207   -4.6617 C   0  0  1  0  0  0  0  0  0  0  0  0
    5.7919  -15.2341   -4.8608 C   0  0  1  0  0  0  0  0  0  0  0  0
    4.1889  -15.1142   -4.9659 C   0  0  2  0  0  0  0  0  0  0  0  0
    9.9312  -17.1369   -3.6732 C   0  0  1  0  0  0  0  0  0  0  0  0
   10.2590  -18.6566   -3.9459 C   0  0  2  0  0  0  0  0  0  0  0  0
    9.7877  -19.5126   -2.6701 C   0  0  1  0  0  0  0  0  0  0  0  0
    8.1834  -19.3922   -2.4790 C   0  0  1  0  0  0  0  0  0  0  0  0
    7.6346  -20.2002   -1.2706 C   0  0  0  0  0  0  0  0  0  0  0  0
    3.7272  -15.9215   -6.2763 C   0  0  1  0  0  0  0  0  0  0  0  0
    4.1140  -17.4701   -6.0512 C   0  0  0  0  0  0  0  0  0  0  0  0
    5.6851  -17.6365   -5.8896 C   0  0  2  0  0  0  0  0  0  0  0  0
   10.0778  -20.9408   -2.8360 F   0  0  0  0  0  0  0  0  0  0  0  0
   10.3387  -16.2171   -4.8341 N   0  0  0  0  0  0  0  0  0  0  0  0
    7.8216  -21.6014   -1.3695 N   0  0  0  0  0  0  0  0  0  0  0  0
    2.2389  -15.8620   -6.4278 N   0  0  0  0  0  0  0  0  0  0  0  0
    6.0477  -19.0332   -5.6688 N   0  0  0  0  0  0  0  0  0  0  0  0
    7.5446  -17.0506   -4.5849 O   0  0  0  0  0  0  0  0  0  0  0  0
    6.2576  -14.4948   -3.6472 O   0  0  0  0  0  0  0  0  0  0  0  0
    3.8723  -13.7740   -5.1366 O   0  0  0  0  0  0  0  0  0  0  0  0
   11.4257  -18.7531   -4.0673 O   0  0  0  0  0  0  0  0  0  0  0  0
    7.8582  -17.8582   -2.3387 O   0  0  0  0  0  0  0  0  0  0  0  0
  1  5  1  0  0  0  0
  1 18  1  6  0  0  0
  2 18  1  6  0  0  0
  2  3  1  0  0  0  0
  2 12  1  0  0  0  0
  3 19  1  1  0  0  0
  3  4  1  0  0  0  0
  4 20  1  6  0  0  0
  4 10  1  0  0  0  0
  5  6  1  0  0  0  0
  5 14  1  6  0  0  0
  6 21  1  1  0  0  0
  7 13  1  6  0  0  0
  7  6  1  0  0  0  0
  8  9  1  1  0  0  0
  8  7  1  0  0  0  0
 10 16  1  1  0  0  0
 11 10  1  0  0  0  0
 12 17  1  1  0  0  0
 12 11  1  0  0  0  0
 15  9  1  0  0  0  0
 22  8  1  0  0  0  0
 22  1  1  0  0  0  0
M  END
>  <CHROM.1>
-175.39598270,82.62904164,-62.96162067,7.20249007,-17.55511115,-4.11137951
-0.71002799,-0.18521887,-0.37686316

>  <Name>
lig.pdb

>  <RI>
0

>  <Rbt.Current_Directory>
/home/itssahil/PROJECTS/Mol_Feturizer/New_Systems/rnas/5bxk

>  <Rbt.Executable>
rbdock ($Id: //depot/dev/client3/rdock/2013.1/src/exe/rbdock.cxx#4 $)

>  <Rbt.Library>
libRbt.so (2013.1, Build901 2013/11/27)

>  <Rbt.Parameter_File>
/export/apps/rDock/src/rDock_2013.1_src/data/scripts/dock_solv.prm

>  <Rbt.Receptor>
prm/blind_docking_40.prm

>  <SCORE>
-6.25234

>  <SCORE.INTER>
-3.68449

>  <SCORE.INTER.CONST>
1

>  <SCORE.INTER.POLAR>
0

>  <SCORE.INTER.ROT>
3

>  <SCORE.INTER.SOLV>
17.8616

>  <SCORE.INTER.VDW>
-14.0102

>  <SCORE.INTER.norm>
-0.167477

>  <SCORE.INTRA>
-2.56785

>  <SCORE.INTRA.DIHEDRAL>
-4.66894

>  <SCORE.INTRA.DIHEDRAL.0>
7.18044

>  <SCORE.INTRA.POLAR>
0

>  <SCORE.INTRA.POLAR.0>
0

>  <SCORE.INTRA.REPUL>
0

>  <SCORE.INTRA.REPUL.0>
0

>  <SCORE.INTRA.SOLV>
-0.272823

>  <SCORE.INTRA.SOLV.lig_0>
-72.0615

>  <SCORE.INTRA.VDW>
-0.0969693

>  <SCORE.INTRA.VDW.0>
-1.54792

>  <SCORE.INTRA.norm>
-0.116721

>  <SCORE.RESTR>
0

>  <SCORE.RESTR.CAVITY>
0

>  <SCORE.RESTR.norm>
0

>  <SCORE.SYSTEM>
0

>  <SCORE.SYSTEM.CONST>
0

>  <SCORE.SYSTEM.DIHEDRAL>
0

>  <SCORE.SYSTEM.SOLV>
0

>  <SCORE.SYSTEM.norm>
0

>  <SCORE.heavy>
22

>  <SCORE.norm>
-0.284197

>  <RMSD>
34.266

$$$$
lig.pdb
 OpenBabel11021811523D
libRbt.so/2013.1/901 2013/11/27
 22 23  0  0  0  0  0  0  0  0999 V2000
    5.1567  -14.9164   -4.7642 C   0  0  1  0  0  0  0  0  0  0  0  0
    7.3085  -15.0802   -3.5028 C   0  0  1  0  0  0  0  0  0  0  0  0
    7.8214  -16.5602   -3.9886 C   0  0  1  0  0  0  0  0  0  0  0  0
    9.4249  -16.5910   -3.8377 C   0  0  2  0  0  0  0  0  0  0  0  0
    3.5669  -14.8997   -4.6360 C   0  0  1  0  0  0  0  0  0  0  0  0
    3.0390  -16.2914   -4.1108 C   0  0  2  0  0  0  0  0  0  0  0  0
    3.4415  -17.4213   -5.1802 C   0  0  1  0  0  0  0  0  0  0  0  0
    5.0538  -17.5302   -5.2970 C   0  0  1  0  0  0  0  0  0  0  0  0
    5.5370  -18.6099   -6.3045 C   0  0  0  0  0  0  0  0  0  0  0  0
   10.0269  -15.4807   -4.8311 C   0  0  1  0  0  0  0  0  0  0  0  0
    9.4903  -14.0447   -4.3328 C   0  0  0  0  0  0  0  0  0  0  0  0
    7.9056  -13.9808   -4.4137 C   0  0  2  0  0  0  0  0  0  0  0  0
    2.9664  -18.7484   -4.7744 F   0  0  0  0  0  0  0  0  0  0  0  0
    3.2397  -13.7367   -3.6872 N   0  0  0  0  0  0  0  0  0  0  0  0
    5.0976  -18.4066   -7.6364 N   0  0  0  0  0  0  0  0  0  0  0  0
   11.5203  -15.4464   -4.7309 N   0  0  0  0  0  0  0  0  0  0  0  0
    7.4053  -12.6902   -3.9496 N   0  0  0  0  0  0  0  0  0  0  0  0
    5.9119  -14.9277   -3.6188 O   0  0  0  0  0  0  0  0  0  0  0  0
    7.2257  -17.5818   -3.0733 O   0  0  0  0  0  0  0  0  0  0  0  0
    9.8675  -17.8403   -4.2488 O   0  0  0  0  0  0  0  0  0  0  0  0
    1.8660  -16.2243   -4.0415 O   0  0  0  0  0  0  0  0  0  0  0  0
    5.5763  -16.0994   -5.6949 O   0  0  0  0  0  0  0  0  0  0  0  0
  1  5  1  0  0  0  0
  1 18  1  1  0  0  0
  2 18  1  6  0  0  0
  2  3  1  0  0  0  0
  2 12  1  0  0  0  0
  3 19  1  1  0  0  0
  3  4  1  0  0  0  0
  4 20  1  6  0  0  0
  4 10  1  0  0  0  0
  5  6  1  0  0  0  0
  5 14  1  1  0  0  0
  6 21  1  6  0  0  0
  7 13  1  1  0  0  0
  7  6  1  0  0  0  0
  8  9  1  6  0  0  0
  8  7  1  0  0  0  0
 10 16  1  1  0  0  0
 11 10  1  0  0  0  0
 12 17  1  1  0  0  0
 12 11  1  0  0  0  0
 15  9  1  0  0  0  0
 22  8  1  0  0  0  0
 22  1  1  0  0  0  0
M  END
>  <CHROM.1>
172.91247408,-65.39978003,59.98192683,6.23441028,-16.11432935,-4.56826829
2.91194116,0.01424574,-2.80237936

>  <Name>
lig.pdb

>  <RI>
0

>  <Rbt.Current_Directory>
/home/itssahil/PROJECTS/Mol_Feturizer/New_Systems/rnas/5bxk

>  <Rbt.Executable>
rbdock ($Id: //depot/dev/client3/rdock/2013.1/src/exe/rbdock.cxx#4 $)

>  <Rbt.Library>
libRbt.so (2013.1, Build901 2013/11/27)

>  <Rbt.Parameter_File>
/export/apps/rDock/src/rDock_2013.1_src/data/scripts/dock_solv.prm

>  <Rbt.Receptor>
prm/blind_docking_80.prm

>  <SCORE>
-7.26942

>  <SCORE.INTER>
-4.16623

>  <SCORE.INTER.CONST>
1

>  <SCORE.INTER.POLAR>
0

>  <SCORE.INTER.ROT>
3

>  <SCORE.INTER.SOLV>
21.5036

>  <SCORE.INTER.VDW>
-15.5453

>  <SCORE.INTER.norm>
-0.189374

>  <SCORE.INTRA>
-3.10319

>  <SCORE.INTRA.DIHEDRAL>
-6.66618

>  <SCORE.INTRA.DIHEDRAL.0>
7.18044

>  <SCORE.INTRA.POLAR>
0

>  <SCORE.INTRA.POLAR.0>
0

>  <SCORE.INTRA.REPUL>
0

>  <SCORE.INTRA.REPUL.0>
0

>  <SCORE.INTRA.SOLV>
0.396964

>  <SCORE.INTRA.SOLV.lig_0>
-72.0615

>  <SCORE.INTRA.VDW>
0.0314213

>  <SCORE.INTRA.VDW.0>
-1.54792

>  <SCORE.INTRA.norm>
-0.141054

>  <SCORE.RESTR>
0

>  <SCORE.RESTR.CAVITY>
0

>  <SCORE.RESTR.norm>
0

>  <SCORE.SYSTEM>
0

>  <SCORE.SYSTEM.CONST>
0

>  <SCORE.SYSTEM.DIHEDRAL>
0

>  <SCORE.SYSTEM.SOLV>
0

>  <SCORE.SYSTEM.norm>
0

>  <SCORE.heavy>
22

>  <SCORE.norm>
-0.330428

>  <RMSD>
34.279

$$$$
lig.pdb
 OpenBabel11021811523D
libRbt.so/2013.1/901 2013/11/27
 22 23  0  0  0  0  0  0  0  0999 V2000
    8.2807  -16.3506   -4.0366 C   0  0  1  0  0  0  0  0  0  0  0  0
    5.9038  -16.1362   -4.7801 C   0  0  1  0  0  0  0  0  0  0  0  0
    5.3084  -14.6708   -5.2130 C   0  0  1  0  0  0  0  0  0  0  0  0
    3.7173  -14.7010   -4.9629 C   0  0  2  0  0  0  0  0  0  0  0  0
    8.4648  -15.1760   -2.9733 C   0  0  1  0  0  0  0  0  0  0  0  0
    9.0601  -13.8893   -3.6671 C   0  0  2  0  0  0  0  0  0  0  0  0
   10.5078  -14.2578   -4.2592 C   0  0  1  0  0  0  0  0  0  0  0  0
   10.3700  -15.4003   -5.3996 C   0  0  1  0  0  0  0  0  0  0  0  0
   11.7248  -15.8133   -6.0389 C   0  0  0  0  0  0  0  0  0  0  0  0
    3.0953  -15.8214   -5.9324 C   0  0  1  0  0  0  0  0  0  0  0  0
    3.7135  -17.2422   -5.4879 C   0  0  0  0  0  0  0  0  0  0  0  0
    5.2914  -17.2465   -5.6673 C   0  0  2  0  0  0  0  0  0  0  0  0
   11.1411  -13.1034   -4.9056 F   0  0  0  0  0  0  0  0  0  0  0  0
    7.0722  -14.9422   -2.3687 N   0  0  0  0  0  0  0  0  0  0  0  0
   12.6497  -16.3872   -5.1315 N   0  0  0  0  0  0  0  0  0  0  0  0
    1.6133  -15.9121   -5.7406 N   0  0  0  0  0  0  0  0  0  0  0  0
    5.8660  -18.5229   -5.2528 N   0  0  0  0  0  0  0  0  0  0  0  0
    7.2951  -16.2356   -4.9842 O   0  0  0  0  0  0  0  0  0  0  0  0
    5.9225  -13.6384   -4.3223 O   0  0  0  0  0  0  0  0  0  0  0  0
    3.2051  -13.4644   -5.3288 O   0  0  0  0  0  0  0  0  0  0  0  0
    9.1797  -13.0613   -2.8392 O   0  0  0  0  0  0  0  0  0  0  0  0
    9.6558  -16.6300   -4.7243 O   0  0  0  0  0  0  0  0  0  0  0  0
  1  5  1  0  0  0  0
  1 18  1  6  0  0  0
  2 18  1  6  0  0  0
  2  3  1  0  0  0  0
  2 12  1  0  0  0  0
  3 19  1  1  0  0  0
  3  4  1  0  0  0  0
  4 20  1  6  0  0  0
  4 10  1  0  0  0  0
  5  6  1  0  0  0  0
  5 14  1  6  0  0  0
  6 21  1  1  0  0  0
  7 13  1  6  0  0  0
  7  6  1  0  0  0  0
  8  9  1  1  0  0  0
  8  7  1  0  0  0  0
 10 16  1  1  0  0  0
 11 10  1  0  0  0  0
 12 17  1  1  0  0  0
 12 11  1  0  0  0  0
 15  9  1  0  0  0  0
 22  8  1  0  0  0  0
 22  1  1  0  0  0  0
M  END
>  <CHROM.1>
-61.41859943,112.80713330,62.32321530,7.29298643,-15.33059673,-4.72302733
-0.13544126,0.05718050,-2.77797477

>  <Name>
lig.pdb

>  <RI>
0

>  <Rbt.Current_Directory>
/home/itssahil/PROJECTS/Mol_Feturizer/New_Systems/rnas/5bxk

>  <Rbt.Executable>
rbdock ($Id: //depot/dev/client3/rdock/2013.1/src/exe/rbdock.cxx#4 $)

>  <Rbt.Library>
libRbt.so (2013.1, Build901 2013/11/27)

>  <Rbt.Parameter_File>
/export/apps/rDock/src/rDock_2013.1_src/data/scripts/dock_solv.prm

>  <Rbt.Receptor>
prm/blind_docking_60.prm

>  <SCORE>
-7.02556

>  <SCORE.INTER>
-8.16008

>  <SCORE.INTER.CONST>
1

>  <SCORE.INTER.POLAR>
0

>  <SCORE.INTER.ROT>
3

>  <SCORE.INTER.SOLV>
19.7278

>  <SCORE.INTER.VDW>
-17.616

>  <SCORE.INTER.norm>
-0.370913

>  <SCORE.INTRA>
1.13452

>  <SCORE.INTRA.DIHEDRAL>
-0.0678971

>  <SCORE.INTRA.DIHEDRAL.0>
7.18044

>  <SCORE.INTRA.POLAR>
0

>  <SCORE.INTRA.POLAR.0>
0

>  <SCORE.INTRA.REPUL>
0

>  <SCORE.INTRA.REPUL.0>
0

>  <SCORE.INTRA.SOLV>
2.83885

>  <SCORE.INTRA.SOLV.lig_0>
-72.0615

>  <SCORE.INTRA.VDW>
-0.25096

>  <SCORE.INTRA.VDW.0>
-1.54792

>  <SCORE.INTRA.norm>
0.0515689

>  <SCORE.RESTR>
0

>  <SCORE.RESTR.CAVITY>
0

>  <SCORE.RESTR.norm>
0

>  <SCORE.SYSTEM>
0

>  <SCORE.SYSTEM.CONST>
0

>  <SCORE.SYSTEM.DIHEDRAL>
0

>  <SCORE.SYSTEM.SOLV>
0

>  <SCORE.SYSTEM.norm>
0

>  <SCORE.heavy>
22

>  <SCORE.norm>
-0.319344

>  <RMSD>
34.351

$$$$
lig.pdb
 OpenBabel11021811523D
libRbt.so/2013.1/901 2013/11/27
 22 23  0  0  0  0  0  0  0  0999 V2000
    8.6801  -21.6041   -4.6793 C   0  0  1  0  0  0  0  0  0  0  0  0
    9.2893  -19.6278   -3.2753 C   0  0  1  0  0  0  0  0  0  0  0  0
   10.7959  -19.3336   -3.8523 C   0  0  1  0  0  0  0  0  0  0  0  0
   11.1237  -17.7798   -3.5816 C   0  0  2  0  0  0  0  0  0  0  0  0
    8.2174  -23.1304   -4.6619 C   0  0  1  0  0  0  0  0  0  0  0  0
    9.3965  -24.0610   -4.1770 C   0  0  2  0  0  0  0  0  0  0  0  0
   10.6128  -23.9202   -5.2178 C   0  0  1  0  0  0  0  0  0  0  0  0
   11.1701  -22.3990   -5.2225 C   0  0  1  0  0  0  0  0  0  0  0  0
   12.3596  -22.1710   -6.1959 C   0  0  0  0  0  0  0  0  0  0  0  0
   10.0666  -16.9079   -4.4208 C   0  0  1  0  0  0  0  0  0  0  0  0
    8.5998  -17.2340   -3.8372 C   0  0  0  0  0  0  0  0  0  0  0  0
    8.2482  -18.7701   -4.0338 C   0  0  2  0  0  0  0  0  0  0  0  0
   11.7466  -24.7742   -4.8483 F   0  0  0  0  0  0  0  0  0  0  0  0
    6.9926  -23.1817   -3.7362 N   0  0  0  0  0  0  0  0  0  0  0  0
   12.9542  -20.8881   -6.1037 N   0  0  0  0  0  0  0  0  0  0  0  0
   10.3069  -15.4463   -4.2030 N   0  0  0  0  0  0  0  0  0  0  0  0
    6.9280  -19.0824   -3.4946 N   0  0  0  0  0  0  0  0  0  0  0  0
    8.8817  -20.9610   -3.4842 O   0  0  0  0  0  0  0  0  0  0  0  0
   11.7612  -20.1770   -3.0821 O   0  0  0  0  0  0  0  0  0  0  0  0
   12.3970  -17.5219   -4.0690 O   0  0  0  0  0  0  0  0  0  0  0  0
    9.0029  -25.1702   -4.1893 O   0  0  0  0  0  0  0  0  0  0  0  0
    9.9497  -21.4711   -5.5807 O   0  0  0  0  0  0  0  0  0  0  0  0
  1  5  1  0  0  0  0
  1 18  1  1  0  0  0
  2 18  1  6  0  0  0
  2  3  1  0  0  0  0
  2 12  1  0  0  0  0
  3 19  1  1  0  0  0
  3  4  1  0  0  0  0
  4 20  1  6  0  0  0
  4 10  1  0  0  0  0
  5  6  1  0  0  0  0
  5 14  1  1  0  0  0
  6 21  1  6  0  0  0
  7 13  1  1  0  0  0
  7  6  1  0  0  0  0
  8  9  1  6  0  0  0
  8  7  1  0  0  0  0
 10 16  1  1  0  0  0
 11 10  1  0  0  0  0
 12 17  1  1  0  0  0
 12 11  1  0  0  0  0
 15  9  1  0  0  0  0
 22  8  1  0  0  0  0
 22  1  1  0  0  0  0
M  END
>  <CHROM.1>
179.89388020,-63.67874601,-173.31714782,10.02492824,-20.78407698,-4.36167444
1.59938022,-0.27247216,-3.01464536

>  <Name>
lig.pdb

>  <RI>
0

>  <Rbt.Current_Directory>
/home/itssahil/PROJECTS/Mol_Feturizer/New_Systems/rnas/5bxk

>  <Rbt.Executable>
rbdock ($Id: //depot/dev/client3/rdock/2013.1/src/exe/rbdock.cxx#4 $)

>  <Rbt.Library>
libRbt.so (2013.1, Build901 2013/11/27)

>  <Rbt.Parameter_File>
/export/apps/rDock/src/rDock_2013.1_src/data/scripts/dock_solv.prm

>  <Rbt.Receptor>
prm/blind_docking_40.prm

>  <SCORE>
-6.37409

>  <SCORE.INTER>
-3.51302

>  <SCORE.INTER.CONST>
1

>  <SCORE.INTER.POLAR>
0

>  <SCORE.INTER.ROT>
3

>  <SCORE.INTER.SOLV>
11.6977

>  <SCORE.INTER.VDW>
-11.8413

>  <SCORE.INTER.norm>
-0.159683

>  <SCORE.INTRA>
-2.86107

>  <SCORE.INTRA.DIHEDRAL>
-6.81712

>  <SCORE.INTRA.DIHEDRAL.0>
7.18044

>  <SCORE.INTRA.POLAR>
0

>  <SCORE.INTRA.POLAR.0>
0

>  <SCORE.INTRA.REPUL>
0

>  <SCORE.INTRA.REPUL.0>
0

>  <SCORE.INTRA.SOLV>
1.45338

>  <SCORE.INTRA.SOLV.lig_0>
-72.0615

>  <SCORE.INTRA.VDW>
-0.1792

>  <SCORE.INTRA.VDW.0>
-1.54792

>  <SCORE.INTRA.norm>
-0.130049

>  <SCORE.RESTR>
0

>  <SCORE.RESTR.CAVITY>
0

>  <SCORE.RESTR.norm>
0

>  <SCORE.SYSTEM>
0

>  <SCORE.SYSTEM.CONST>
0

>  <SCORE.SYSTEM.DIHEDRAL>
0

>  <SCORE.SYSTEM.SOLV>
0

>  <SCORE.SYSTEM.norm>
0

>  <SCORE.heavy>
22

>  <SCORE.norm>
-0.289731

>  <RMSD>
34.367

$$$$
lig.pdb
 OpenBabel11021811523D
libRbt.so/2013.1/901 2013/11/27
 22 23  0  0  0  0  0  0  0  0999 V2000
    9.2349  -21.5222   -4.9640 C   0  0  1  0  0  0  0  0  0  0  0  0
    9.6678  -19.5544   -3.4845 C   0  0  1  0  0  0  0  0  0  0  0  0
   11.1849  -19.1734   -3.9772 C   0  0  1  0  0  0  0  0  0  0  0  0
   11.4221  -17.6133   -3.6533 C   0  0  2  0  0  0  0  0  0  0  0  0
    8.8437  -23.0679   -5.0065 C   0  0  1  0  0  0  0  0  0  0  0  0
   10.0350  -23.9556   -4.4734 C   0  0  2  0  0  0  0  0  0  0  0  0
   11.3013  -23.7347   -5.4378 C   0  0  1  0  0  0  0  0  0  0  0  0
   11.7864  -22.1901   -5.3771 C   0  0  1  0  0  0  0  0  0  0  0  0
   13.0181  -21.8850   -6.2739 C   0  0  0  0  0  0  0  0  0  0  0  0
   10.3663  -16.7713   -4.5242 C   0  0  1  0  0  0  0  0  0  0  0  0
    8.8902  -17.1825   -4.0237 C   0  0  0  0  0  0  0  0  0  0  0  0
    8.6247  -18.7280   -4.2744 C   0  0  2  0  0  0  0  0  0  0  0  0
   12.4506  -24.5451   -5.0208 F   0  0  0  0  0  0  0  0  0  0  0  0
    7.5713  -23.1970   -4.1556 N   0  0  0  0  0  0  0  0  0  0  0  0
   13.4454  -20.5343   -6.2423 N   0  0  0  0  0  0  0  0  0  0  0  0
   10.5234  -15.3061   -4.2598 N   0  0  0  0  0  0  0  0  0  0  0  0
    7.2964  -19.1172   -3.8104 N   0  0  0  0  0  0  0  0  0  0  0  0
    9.3371  -20.8997   -3.7456 O   0  0  0  0  0  0  0  0  0  0  0  0
   12.1511  -19.9895   -3.1793 O   0  0  0  0  0  0  0  0  0  0  0  0
   12.7038  -17.2821   -4.0692 O   0  0  0  0  0  0  0  0  0  0  0  0
    9.6950  -25.0808   -4.5325 O   0  0  0  0  0  0  0  0  0  0  0  0
   10.5467  -21.3101   -5.7862 O   0  0  0  0  0  0  0  0  0  0  0  0
  1  5  1  0  0  0  0
  1 18  1  1  0  0  0
  2 18  1  6  0  0  0
  2  3  1  0  0  0  0
  2 12  1  0  0  0  0
  3 19  1  1  0  0  0
  3  4  1  0  0  0  0
  4 20  1  6  0  0  0
  4 10  1  0  0  0  0
  5  6  1  0  0  0  0
  5 14  1  1  0  0  0
  6 21  1  6  0  0  0
  7 13  1  1  0  0  0
  7  6  1  0  0  0  0
  8  9  1  6  0  0  0
  8  7  1  0  0  0  0
 10 16  1  1  0  0  0
 11 10  1  0  0  0  0
 12 17  1  1  0  0  0
 12 11  1  0  0  0  0
 15  9  1  0  0  0  0
 22  8  1  0  0  0  0
 22  1  1  0  0  0  0
M  END
>  <CHROM.1>
179.97455953,-63.23630683,179.35732893,10.51101108,-20.64664196,-4.55713555
1.54278246,-0.23091113,-3.00622590

>  <Name>
lig.pdb

>  <RI>
0

>  <Rbt.Current_Directory>
/home/itssahil/PROJECTS/Mol_Feturizer/New_Systems/rnas/5bxk

>  <Rbt.Executable>
rbdock ($Id: //depot/dev/client3/rdock/2013.1/src/exe/rbdock.cxx#4 $)

>  <Rbt.Library>
libRbt.so (2013.1, Build901 2013/11/27)

>  <Rbt.Parameter_File>
/export/apps/rDock/src/rDock_2013.1_src/data/scripts/dock_solv.prm

>  <Rbt.Receptor>
prm/blind_docking_100.prm

>  <SCORE>
-7.11905

>  <SCORE.INTER>
-4.19665

>  <SCORE.INTER.CONST>
1

>  <SCORE.INTER.POLAR>
0

>  <SCORE.INTER.ROT>
3

>  <SCORE.INTER.SOLV>
11.5571

>  <SCORE.INTER.VDW>
-12.2501

>  <SCORE.INTER.norm>
-0.190757

>  <SCORE.INTRA>
-2.9224

>  <SCORE.INTRA.DIHEDRAL>
-6.99209

>  <SCORE.INTRA.DIHEDRAL.0>
7.18044

>  <SCORE.INTRA.POLAR>
0

>  <SCORE.INTRA.POLAR.0>
0

>  <SCORE.INTRA.REPUL>
0

>  <SCORE.INTRA.REPUL.0>
0

>  <SCORE.INTRA.SOLV>
1.5035

>  <SCORE.INTRA.SOLV.lig_0>
-72.0615

>  <SCORE.INTRA.VDW>
-0.178101

>  <SCORE.INTRA.VDW.0>
-1.54792

>  <SCORE.INTRA.norm>
-0.132836

>  <SCORE.RESTR>
0

>  <SCORE.RESTR.CAVITY>
0

>  <SCORE.RESTR.norm>
0

>  <SCORE.SYSTEM>
0

>  <SCORE.SYSTEM.CONST>
0

>  <SCORE.SYSTEM.DIHEDRAL>
0

>  <SCORE.SYSTEM.SOLV>
0

>  <SCORE.SYSTEM.norm>
0

>  <SCORE.heavy>
22

>  <SCORE.norm>
-0.323593

>  <RMSD>
34.399

$$$$
lig.pdb
 OpenBabel11021811523D
libRbt.so/2013.1/901 2013/11/27
 22 23  0  0  0  0  0  0  0  0999 V2000
    7.1222  -16.3252   -3.5680 C   0  0  1  0  0  0  0  0  0  0  0  0
    5.7290  -17.9200   -4.8961 C   0  0  1  0  0  0  0  0  0  0  0  0
    6.4186  -19.2466   -4.2225 C   0  0  1  0  0  0  0  0  0  0  0  0
    5.4235  -20.4889   -4.4706 C   0  0  2  0  0  0  0  0  0  0  0  0
    7.5796  -14.8003   -3.4694 C   0  0  1  0  0  0  0  0  0  0  0  0
    8.8068  -14.5274   -4.4237 C   0  0  2  0  0  0  0  0  0  0  0  0
   10.0339  -15.4483   -3.9458 C   0  0  1  0  0  0  0  0  0  0  0  0
    9.6470  -17.0146   -4.0939 C   0  0  1  0  0  0  0  0  0  0  0  0
   10.7830  -17.9834   -3.6632 C   0  0  0  0  0  0  0  0  0  0  0  0
    4.0491  -20.1704   -3.7013 C   0  0  1  0  0  0  0  0  0  0  0  0
    3.4096  -18.8551   -4.3790 C   0  0  0  0  0  0  0  0  0  0  0  0
    4.3790  -17.6092   -4.2063 C   0  0  2  0  0  0  0  0  0  0  0  0
   11.2267  -15.2375   -4.7730 F   0  0  0  0  0  0  0  0  0  0  0  0
    6.3391  -13.9710   -3.8344 N   0  0  0  0  0  0  0  0  0  0  0  0
   11.9764  -17.8586   -4.4170 N   0  0  0  0  0  0  0  0  0  0  0  0
    3.0691  -21.2842   -3.9023 N   0  0  0  0  0  0  0  0  0  0  0  0
    3.8186  -16.4142   -4.8302 N   0  0  0  0  0  0  0  0  0  0  0  0
    6.5047  -16.7570   -4.7147 O   0  0  0  0  0  0  0  0  0  0  0  0
    7.7105  -19.5080   -4.9288 O   0  0  0  0  0  0  0  0  0  0  0  0
    5.9991  -21.6160   -3.9015 O   0  0  0  0  0  0  0  0  0  0  0  0
    9.1042  -13.3946   -4.3065 O   0  0  0  0  0  0  0  0  0  0  0  0
    8.3445  -17.2417   -3.2394 O   0  0  0  0  0  0  0  0  0  0  0  0
  1  5  1  0  0  0  0
  1 18  1  6  0  0  0
  2 18  1  1  0  0  0
  2  3  1  0  0  0  0
  2 12  1  0  0  0  0
  3 19  1  6  0  0  0
  3  4  1  0  0  0  0
  4 20  1  1  0  0  0
  4 10  1  0  0  0  0
  5  6  1  0  0  0  0
  5 14  1  6  0  0  0
  6 21  1  1  0  0  0
  7 13  1  6  0  0  0
  7  6  1  0  0  0  0
  8  9  1  1  0  0  0
  8  7  1  0  0  0  0
 10 16  1  6  0  0  0
 11 10  1  0  0  0  0
 12 17  1  6  0  0  0
 12 11  1  0  0  0  0
 15  9  1  0  0  0  0
 22  8  1  0  0  0  0
 22  1  1  0  0  0  0
M  END
>  <CHROM.1>
-162.27009621,-45.17595145,-60.99663644,7.24218754,-17.41574818,-4.18993895
0.67603421,-0.00534644,-0.00611382

>  <Name>
lig.pdb

>  <RI>
0

>  <Rbt.Current_Directory>
/home/itssahil/PROJECTS/Mol_Feturizer/New_Systems/rnas/5bxk

>  <Rbt.Executable>
rbdock ($Id: //depot/dev/client3/rdock/2013.1/src/exe/rbdock.cxx#4 $)

>  <Rbt.Library>
libRbt.so (2013.1, Build901 2013/11/27)

>  <Rbt.Parameter_File>
/export/apps/rDock/src/rDock_2013.1_src/data/scripts/dock_solv.prm

>  <Rbt.Receptor>
prm/blind_docking_100.prm

>  <SCORE>
-6.13223

>  <SCORE.INTER>
-4.45882

>  <SCORE.INTER.CONST>
1

>  <SCORE.INTER.POLAR>
0

>  <SCORE.INTER.ROT>
3

>  <SCORE.INTER.SOLV>
16.0545

>  <SCORE.INTER.VDW>
-13.924

>  <SCORE.INTER.norm>
-0.202674

>  <SCORE.INTRA>
-1.67341

>  <SCORE.INTRA.DIHEDRAL>
-4.62145

>  <SCORE.INTRA.DIHEDRAL.0>
7.18044

>  <SCORE.INTRA.POLAR>
0

>  <SCORE.INTRA.POLAR.0>
0

>  <SCORE.INTRA.REPUL>
0

>  <SCORE.INTRA.REPUL.0>
0

>  <SCORE.INTRA.SOLV>
1.29708

>  <SCORE.INTRA.SOLV.lig_0>
-72.0615

>  <SCORE.INTRA.VDW>
-0.0112283

>  <SCORE.INTRA.VDW.0>
-1.54792

>  <SCORE.INTRA.norm>
-0.0760641

>  <SCORE.RESTR>
0

>  <SCORE.RESTR.CAVITY>
0

>  <SCORE.RESTR.norm>
0

>  <SCORE.SYSTEM>
0

>  <SCORE.SYSTEM.CONST>
0

>  <SCORE.SYSTEM.DIHEDRAL>
0

>  <SCORE.SYSTEM.SOLV>
0

>  <SCORE.SYSTEM.norm>
0

>  <SCORE.heavy>
22

>  <SCORE.norm>
-0.278738

>  <RMSD>
34.414

$$$$
lig.pdb
 OpenBabel11021811523D
libRbt.so/2013.1/901 2013/11/27
 22 23  0  0  0  0  0  0  0  0999 V2000
    7.1153  -16.3253   -3.5778 C   0  0  1  0  0  0  0  0  0  0  0  0
    5.7100  -17.8964   -4.9213 C   0  0  1  0  0  0  0  0  0  0  0  0
    6.3564  -19.2273   -4.2141 C   0  0  1  0  0  0  0  0  0  0  0  0
    5.3465  -20.4546   -4.4768 C   0  0  2  0  0  0  0  0  0  0  0  0
    7.5809  -14.8038   -3.4660 C   0  0  1  0  0  0  0  0  0  0  0  0
    8.8146  -14.5313   -4.4121 C   0  0  2  0  0  0  0  0  0  0  0  0
   10.0339  -15.4627   -3.9344 C   0  0  1  0  0  0  0  0  0  0  0  0
    9.6387  -17.0256   -4.0957 C   0  0  1  0  0  0  0  0  0  0  0  0
   10.7668  -18.0041   -3.6660 C   0  0  0  0  0  0  0  0  0  0  0  0
    3.9570  -20.1031   -3.7502 C   0  0  1  0  0  0  0  0  0  0  0  0
    3.3606  -18.7844   -4.4599 C   0  0  0  0  0  0  0  0  0  0  0  0
    4.3471  -17.5540   -4.2734 C   0  0  2  0  0  0  0  0  0  0  0  0
   11.2321  -15.2531   -4.7541 F   0  0  0  0  0  0  0  0  0  0  0  0
    6.3472  -13.9648   -3.8315 N   0  0  0  0  0  0  0  0  0  0  0  0
   11.9650  -17.8806   -4.4124 N   0  0  0  0  0  0  0  0  0  0  0  0
    2.9631  -21.2016   -3.9668 N   0  0  0  0  0  0  0  0  0  0  0  0
    3.8260  -16.3565   -4.9258 N   0  0  0  0  0  0  0  0  0  0  0  0
    6.5012  -16.7454   -4.7306 O   0  0  0  0  0  0  0  0  0  0  0  0
    7.6627  -19.5196   -4.8807 O   0  0  0  0  0  0  0  0  0  0  0  0
    5.8854  -21.5851   -3.8795 O   0  0  0  0  0  0  0  0  0  0  0  0
    9.1180  -13.4012   -4.2853 O   0  0  0  0  0  0  0  0  0  0  0  0
    8.3305  -17.2512   -3.2495 O   0  0  0  0  0  0  0  0  0  0  0  0
  1  5  1  0  0  0  0
  1 18  1  6  0  0  0
  2 18  1  1  0  0  0
  2  3  1  0  0  0  0
  2 12  1  0  0  0  0
  3 19  1  6  0  0  0
  3  4  1  0  0  0  0
  4 20  1  1  0  0  0
  4 10  1  0  0  0  0
  5  6  1  0  0  0  0
  5 14  1  6  0  0  0
  6 21  1  1  0  0  0
  7 13  1  6  0  0  0
  7  6  1  0  0  0  0
  8  9  1  1  0  0  0
  8  7  1  0  0  0  0
 10 16  1  6  0  0  0
 11 10  1  0  0  0  0
 12 17  1  6  0  0  0
 12 11  1  0  0  0  0
 15  9  1  0  0  0  0
 22  8  1  0  0  0  0
 22  1  1  0  0  0  0
M  END
>  <CHROM.1>
-161.66401551,-43.79455884,-60.97111407,7.21462905,-17.40120355,-4.20118080
0.66020970,-0.01637666,-0.00914667

>  <Name>
lig.pdb

>  <RI>
0

>  <Rbt.Current_Directory>
/home/itssahil/PROJECTS/Mol_Feturizer/New_Systems/rnas/5bxk

>  <Rbt.Executable>
rbdock ($Id: //depot/dev/client3/rdock/2013.1/src/exe/rbdock.cxx#4 $)

>  <Rbt.Library>
libRbt.so (2013.1, Build901 2013/11/27)

>  <Rbt.Parameter_File>
/export/apps/rDock/src/rDock_2013.1_src/data/scripts/dock_solv.prm

>  <Rbt.Receptor>
prm/blind_docking_60.prm

>  <SCORE>
-6.16104

>  <SCORE.INTER>
-4.65097

>  <SCORE.INTER.CONST>
1

>  <SCORE.INTER.POLAR>
0

>  <SCORE.INTER.ROT>
3

>  <SCORE.INTER.SOLV>
15.8315

>  <SCORE.INTER.VDW>
-13.9778

>  <SCORE.INTER.norm>
-0.211408

>  <SCORE.INTRA>
-1.51007

>  <SCORE.INTRA.DIHEDRAL>
-4.34357

>  <SCORE.INTRA.DIHEDRAL.0>
7.18044

>  <SCORE.INTRA.POLAR>
0

>  <SCORE.INTRA.POLAR.0>
0

>  <SCORE.INTRA.REPUL>
0

>  <SCORE.INTRA.REPUL.0>
0

>  <SCORE.INTRA.SOLV>
1.30347

>  <SCORE.INTRA.SOLV.lig_0>
-72.0615

>  <SCORE.INTRA.VDW>
0.00997838

>  <SCORE.INTRA.VDW.0>
-1.54792

>  <SCORE.INTRA.norm>
-0.0686395

>  <SCORE.RESTR>
0

>  <SCORE.RESTR.CAVITY>
0

>  <SCORE.RESTR.norm>
0

>  <SCORE.SYSTEM>
0

>  <SCORE.SYSTEM.CONST>
0

>  <SCORE.SYSTEM.DIHEDRAL>
0

>  <SCORE.SYSTEM.SOLV>
0

>  <SCORE.SYSTEM.norm>
0

>  <SCORE.heavy>
22

>  <SCORE.norm>
-0.280047

>  <RMSD>
34.432

$$$$
lig.pdb
 OpenBabel11021811523D
libRbt.so/2013.1/901 2013/11/27
 22 23  0  0  0  0  0  0  0  0999 V2000
    6.9017  -14.6468   -3.5892 C   0  0  1  0  0  0  0  0  0  0  0  0
    4.6063  -14.9044   -4.5448 C   0  0  1  0  0  0  0  0  0  0  0  0
    3.7870  -13.5436   -4.1370 C   0  0  1  0  0  0  0  0  0  0  0  0
    2.2184  -13.9098   -4.1175 C   0  0  2  0  0  0  0  0  0  0  0  0
    8.3369  -14.0032   -3.8541 C   0  0  1  0  0  0  0  0  0  0  0  0
    9.2026  -14.9428   -4.7810 C   0  0  2  0  0  0  0  0  0  0  0  0
    9.4161  -16.3436   -4.0230 C   0  0  1  0  0  0  0  0  0  0  0  0
    7.9897  -17.0762   -3.7918 C   0  0  1  0  0  0  0  0  0  0  0  0
    8.1004  -18.4489   -3.0721 C   0  0  0  0  0  0  0  0  0  0  0  0
    1.8023  -14.3394   -5.6090 C   0  0  1  0  0  0  0  0  0  0  0  0
    2.6367  -15.6679   -5.9797 C   0  0  0  0  0  0  0  0  0  0  0  0
    4.1968  -15.3718   -5.9621 C   0  0  2  0  0  0  0  0  0  0  0  0
   10.2332  -17.2707   -4.8132 F   0  0  0  0  0  0  0  0  0  0  0  0
    8.0649  -12.6273   -4.4806 N   0  0  0  0  0  0  0  0  0  0  0  0
    6.8889  -19.1820   -3.0197 N   0  0  0  0  0  0  0  0  0  0  0  0
    0.3520  -14.7076   -5.6598 N   0  0  0  0  0  0  0  0  0  0  0  0
    4.9651  -16.5716   -6.2806 N   0  0  0  0  0  0  0  0  0  0  0  0
    5.9982  -14.6945   -4.6207 O   0  0  0  0  0  0  0  0  0  0  0  0
    4.2109  -13.1411   -2.7605 O   0  0  0  0  0  0  0  0  0  0  0  0
    1.5174  -12.7624   -3.7749 O   0  0  0  0  0  0  0  0  0  0  0  0
   10.2474  -14.4241   -4.9375 O   0  0  0  0  0  0  0  0  0  0  0  0
    7.0921  -16.0719   -2.9769 O   0  0  0  0  0  0  0  0  0  0  0  0
  1  5  1  0  0  0  0
  1 18  1  6  0  0  0
  2 18  1  6  0  0  0
  2  3  1  0  0  0  0
  2 12  1  0  0  0  0
  3 19  1  1  0  0  0
  3  4  1  0  0  0  0
  4 20  1  6  0  0  0
  4 10  1  0  0  0  0
  5  6  1  0  0  0  0
  5 14  1  6  0  0  0
  6 21  1  1  0  0  0
  7 13  1  6  0  0  0
  7  6  1  0  0  0  0
  8  9  1  1  0  0  0
  8  7  1  0  0  0  0
 10 16  1  1  0  0  0
 11 10  1  0  0  0  0
 12 17  1  1  0  0  0
 12 11  1  0  0  0  0
 15  9  1  0  0  0  0
 22  8  1  0  0  0  0
 22  1  1  0  0  0  0
M  END
>  <CHROM.1>
-163.10734131,80.33050934,-172.06753554,5.92163627,-15.22246055,-4.38603223
-0.29824873,-0.11170225,0.04441952

>  <Name>
lig.pdb

>  <RI>
0

>  <Rbt.Current_Directory>
/home/itssahil/PROJECTS/Mol_Feturizer/New_Systems/rnas/5bxk

>  <Rbt.Executable>
rbdock ($Id: //depot/dev/client3/rdock/2013.1/src/exe/rbdock.cxx#4 $)

>  <Rbt.Library>
libRbt.so (2013.1, Build901 2013/11/27)

>  <Rbt.Parameter_File>
/export/apps/rDock/src/rDock_2013.1_src/data/scripts/dock_solv.prm

>  <Rbt.Receptor>
prm/blind_docking_80.prm

>  <SCORE>
-7.66704

>  <SCORE.INTER>
-5.16548

>  <SCORE.INTER.CONST>
1

>  <SCORE.INTER.POLAR>
0

>  <SCORE.INTER.ROT>
3

>  <SCORE.INTER.SOLV>
21.1111

>  <SCORE.INTER.VDW>
-16.0807

>  <SCORE.INTER.norm>
-0.234795

>  <SCORE.INTRA>
-2.50257

>  <SCORE.INTRA.DIHEDRAL>
-3.69533

>  <SCORE.INTRA.DIHEDRAL.0>
7.18044

>  <SCORE.INTRA.POLAR>
0

>  <SCORE.INTRA.POLAR.0>
0

>  <SCORE.INTRA.REPUL>
0

>  <SCORE.INTRA.REPUL.0>
0

>  <SCORE.INTRA.SOLV>
-1.12511

>  <SCORE.INTRA.SOLV.lig_0>
-72.0615

>  <SCORE.INTRA.VDW>
-0.0923506

>  <SCORE.INTRA.VDW.0>
-1.54792

>  <SCORE.INTRA.norm>
-0.113753

>  <SCORE.RESTR>
0.0010165

>  <SCORE.RESTR.CAVITY>
0.0010165

>  <SCORE.RESTR.norm>
4.62046e-05

>  <SCORE.SYSTEM>
0

>  <SCORE.SYSTEM.CONST>
0

>  <SCORE.SYSTEM.DIHEDRAL>
0

>  <SCORE.SYSTEM.SOLV>
0

>  <SCORE.SYSTEM.norm>
0

>  <SCORE.heavy>
22

>  <SCORE.norm>
-0.348502

>  <RMSD>
34.446

$$$$
lig.pdb
 OpenBabel11021811523D
libRbt.so/2013.1/901 2013/11/27
 22 23  0  0  0  0  0  0  0  0999 V2000
    7.5750  -15.6434   -3.7537 C   0  0  1  0  0  0  0  0  0  0  0  0
    5.5763  -16.0467   -5.1997 C   0  0  1  0  0  0  0  0  0  0  0  0
    5.3535  -17.6367   -4.8658 C   0  0  1  0  0  0  0  0  0  0  0  0
    3.8089  -17.9829   -5.1650 C   0  0  2  0  0  0  0  0  0  0  0  0
    9.0912  -15.1490   -3.7238 C   0  0  1  0  0  0  0  0  0  0  0  0
   10.0265  -16.1863   -4.4591 C   0  0  2  0  0  0  0  0  0  0  0  0
    9.9428  -17.5869   -3.6756 C   0  0  1  0  0  0  0  0  0  0  0  0
    8.4330  -18.1713   -3.7368 C   0  0  1  0  0  0  0  0  0  0  0  0
    8.2594  -19.5344   -3.0115 C   0  0  0  0  0  0  0  0  0  0  0  0
    2.9122  -17.1098   -4.1573 C   0  0  1  0  0  0  0  0  0  0  0  0
    3.1684  -15.5566   -4.5044 C   0  0  0  0  0  0  0  0  0  0  0  0
    4.6929  -15.1760   -4.2742 C   0  0  2  0  0  0  0  0  0  0  0  0
   10.8045  -18.6045   -4.2868 F   0  0  0  0  0  0  0  0  0  0  0  0
    9.0892  -13.7650   -4.3903 N   0  0  0  0  0  0  0  0  0  0  0  0
    8.9937  -20.6014   -3.5865 N   0  0  0  0  0  0  0  0  0  0  0  0
    1.4574  -17.3742   -4.3916 N   0  0  0  0  0  0  0  0  0  0  0  0
    4.9420  -13.7751   -4.6007 N   0  0  0  0  0  0  0  0  0  0  0  0
    6.8961  -15.6213   -4.9458 O   0  0  0  0  0  0  0  0  0  0  0  0
    6.2194  -18.4314   -5.7904 O   0  0  0  0  0  0  0  0  0  0  0  0
    3.6114  -19.3271   -4.8830 O   0  0  0  0  0  0  0  0  0  0  0  0
   11.1281  -15.7759   -4.4017 O   0  0  0  0  0  0  0  0  0  0  0  0
    7.4954  -17.0685   -3.1176 O   0  0  0  0  0  0  0  0  0  0  0  0
  1  5  1  0  0  0  0
  1 18  1  6  0  0  0
  2 18  1  1  0  0  0
  2  3  1  0  0  0  0
  2 12  1  0  0  0  0
  3 19  1  6  0  0  0
  3  4  1  0  0  0  0
  4 20  1  1  0  0  0
  4 10  1  0  0  0  0
  5  6  1  0  0  0  0
  5 14  1  6  0  0  0
  6 21  1  1  0  0  0
  7 13  1  6  0  0  0
  7  6  1  0  0  0  0
  8  9  1  1  0  0  0
  8  7  1  0  0  0  0
 10 16  1  6  0  0  0
 11 10  1  0  0  0  0
 12 17  1  6  0  0  0
 12 11  1  0  0  0  0
 15  9  1  0  0  0  0
 22  8  1  0  0  0  0
 22  1  1  0  0  0  0
M  END
>  <CHROM.1>
177.97692757,-60.30646830,-64.22378967,6.86862737,-16.95998967,-4.32447778
-0.04301874,-0.09815834,-0.05358249

>  <Name>
lig.pdb

>  <RI>
0

>  <Rbt.Current_Directory>
/home/itssahil/PROJECTS/Mol_Feturizer/New_Systems/rnas/5bxk

>  <Rbt.Executable>
rbdock ($Id: //depot/dev/client3/rdock/2013.1/src/exe/rbdock.cxx#4 $)

>  <Rbt.Library>
libRbt.so (2013.1, Build901 2013/11/27)

>  <Rbt.Parameter_File>
/export/apps/rDock/src/rDock_2013.1_src/data/scripts/dock_solv.prm

>  <Rbt.Receptor>
prm/blind_docking_80.prm

>  <SCORE>
-6.41298

>  <SCORE.INTER>
-3.29708

>  <SCORE.INTER.CONST>
1

>  <SCORE.INTER.POLAR>
0

>  <SCORE.INTER.ROT>
3

>  <SCORE.INTER.SOLV>
14.0303

>  <SCORE.INTER.VDW>
-12.4748

>  <SCORE.INTER.norm>
-0.149867

>  <SCORE.INTRA>
-3.1159

>  <SCORE.INTRA.DIHEDRAL>
-6.96172

>  <SCORE.INTRA.DIHEDRAL.0>
7.18044

>  <SCORE.INTRA.POLAR>
0

>  <SCORE.INTRA.POLAR.0>
0

>  <SCORE.INTRA.REPUL>
0

>  <SCORE.INTRA.REPUL.0>
0

>  <SCORE.INTRA.SOLV>
0.513806

>  <SCORE.INTRA.SOLV.lig_0>
-72.0615

>  <SCORE.INTRA.VDW>
0.108062

>  <SCORE.INTRA.VDW.0>
-1.54792

>  <SCORE.INTRA.norm>
-0.141632

>  <SCORE.RESTR>
0

>  <SCORE.RESTR.CAVITY>
0

>  <SCORE.RESTR.norm>
0

>  <SCORE.SYSTEM>
0

>  <SCORE.SYSTEM.CONST>
0

>  <SCORE.SYSTEM.DIHEDRAL>
0

>  <SCORE.SYSTEM.SOLV>
0

>  <SCORE.SYSTEM.norm>
0

>  <SCORE.heavy>
22

>  <SCORE.norm>
-0.291499

>  <RMSD>
34.448

$$$$
lig.pdb
 OpenBabel11021811523D
libRbt.so/2013.1/901 2013/11/27
 22 23  0  0  0  0  0  0  0  0999 V2000
    7.2363  -14.8819   -3.8243 C   0  0  1  0  0  0  0  0  0  0  0  0
    5.2246  -15.5046   -5.1710 C   0  0  1  0  0  0  0  0  0  0  0  0
    5.2552  -17.1272   -4.9358 C   0  0  1  0  0  0  0  0  0  0  0  0
    3.7579  -17.6777   -5.1598 C   0  0  2  0  0  0  0  0  0  0  0  0
    8.6195  -14.0876   -3.8276 C   0  0  1  0  0  0  0  0  0  0  0  0
    9.6916  -14.8463   -4.7030 C   0  0  2  0  0  0  0  0  0  0  0  0
    9.9477  -16.2916   -4.0489 C   0  0  1  0  0  0  0  0  0  0  0  0
    8.5867  -17.1698   -4.0854 C   0  0  1  0  0  0  0  0  0  0  0  0
    8.7435  -18.5927   -3.4810 C   0  0  0  0  0  0  0  0  0  0  0  0
    2.8222  -17.0077   -4.0384 C   0  0  1  0  0  0  0  0  0  0  0  0
    2.8288  -15.4157   -4.2915 C   0  0  0  0  0  0  0  0  0  0  0  0
    4.2964  -14.8301   -4.1326 C   0  0  2  0  0  0  0  0  0  0  0  0
   10.9527  -17.0562   -4.7952 F   0  0  0  0  0  0  0  0  0  0  0  0
    8.2912  -12.6855   -4.3625 N   0  0  0  0  0  0  0  0  0  0  0  0
    7.5677  -19.3822   -3.5290 N   0  0  0  0  0  0  0  0  0  0  0  0
    1.4065  -17.4681   -4.1977 N   0  0  0  0  0  0  0  0  0  0  0  0
    4.3192  -13.3908   -4.3753 N   0  0  0  0  0  0  0  0  0  0  0  0
    6.4855  -14.9062   -4.9724 O   0  0  0  0  0  0  0  0  0  0  0  0
    6.1554  -17.7293   -5.9671 O   0  0  0  0  0  0  0  0  0  0  0  0
    3.7746  -19.0508   -4.9606 O   0  0  0  0  0  0  0  0  0  0  0  0
   10.6887  -14.2220   -4.6652 O   0  0  0  0  0  0  0  0  0  0  0  0
    7.4911  -16.3385   -3.3192 O   0  0  0  0  0  0  0  0  0  0  0  0
  1  5  1  0  0  0  0
  1 18  1  6  0  0  0
  2 18  1  1  0  0  0
  2  3  1  0  0  0  0
  2 12  1  0  0  0  0
  3 19  1  6  0  0  0
  3  4  1  0  0  0  0
  4 20  1  1  0  0  0
  4 10  1  0  0  0  0
  5  6  1  0  0  0  0
  5 14  1  6  0  0  0
  6 21  1  1  0  0  0
  7 13  1  6  0  0  0
  7  6  1  0  0  0  0
  8  9  1  1  0  0  0
  8  7  1  0  0  0  0
 10 16  1  6  0  0  0
 11 10  1  0  0  0  0
 12 17  1  6  0  0  0
 12 11  1  0  0  0  0
 15  9  1  0  0  0  0
 22  8  1  0  0  0  0
 22  1  1  0  0  0  0
M  END
>  <CHROM.1>
-177.67664869,-61.44440215,-178.85736980,6.63391221,-16.19682453,-4.42040257
0.19481687,-0.03583262,-0.00036341

>  <Name>
lig.pdb

>  <RI>
0

>  <Rbt.Current_Directory>
/home/itssahil/PROJECTS/Mol_Feturizer/New_Systems/rnas/5bxk

>  <Rbt.Executable>
rbdock ($Id: //depot/dev/client3/rdock/2013.1/src/exe/rbdock.cxx#4 $)

>  <Rbt.Library>
libRbt.so (2013.1, Build901 2013/11/27)

>  <Rbt.Parameter_File>
/export/apps/rDock/src/rDock_2013.1_src/data/scripts/dock_solv.prm

>  <Rbt.Receptor>
prm/blind_docking_80.prm

>  <SCORE>
-6.33886

>  <SCORE.INTER>
-3.41002

>  <SCORE.INTER.CONST>
1

>  <SCORE.INTER.POLAR>
0

>  <SCORE.INTER.ROT>
3

>  <SCORE.INTER.SOLV>
17.3113

>  <SCORE.INTER.VDW>
-13.6438

>  <SCORE.INTER.norm>
-0.155001

>  <SCORE.INTRA>
-2.92885

>  <SCORE.INTRA.DIHEDRAL>
-7.00416

>  <SCORE.INTRA.DIHEDRAL.0>
7.18044

>  <SCORE.INTRA.POLAR>
0

>  <SCORE.INTRA.POLAR.0>
0

>  <SCORE.INTRA.REPUL>
0

>  <SCORE.INTRA.REPUL.0>
0

>  <SCORE.INTRA.SOLV>
1.53229

>  <SCORE.INTRA.SOLV.lig_0>
-72.0615

>  <SCORE.INTRA.VDW>
-0.192912

>  <SCORE.INTRA.VDW.0>
-1.54792

>  <SCORE.INTRA.norm>
-0.133129

>  <SCORE.RESTR>
0

>  <SCORE.RESTR.CAVITY>
0

>  <SCORE.RESTR.norm>
0

>  <SCORE.SYSTEM>
0

>  <SCORE.SYSTEM.CONST>
0

>  <SCORE.SYSTEM.DIHEDRAL>
0

>  <SCORE.SYSTEM.SOLV>
0

>  <SCORE.SYSTEM.norm>
0

>  <SCORE.heavy>
22

>  <SCORE.norm>
-0.28813

>  <RMSD>
34.455

$$$$
lig.pdb
 OpenBabel11021811523D
libRbt.so/2013.1/901 2013/11/27
 22 23  0  0  0  0  0  0  0  0999 V2000
    7.5544  -15.6450   -3.7559 C   0  0  1  0  0  0  0  0  0  0  0  0
    5.5760  -16.0661   -5.2244 C   0  0  1  0  0  0  0  0  0  0  0  0
    5.3526  -17.6534   -4.8779 C   0  0  1  0  0  0  0  0  0  0  0  0
    3.8132  -18.0066   -5.1947 C   0  0  2  0  0  0  0  0  0  0  0  0
    9.0675  -15.1424   -3.7096 C   0  0  1  0  0  0  0  0  0  0  0  0
   10.0177  -16.1799   -4.4253 C   0  0  2  0  0  0  0  0  0  0  0  0
    9.9310  -17.5753   -3.6331 C   0  0  1  0  0  0  0  0  0  0  0  0
    8.4252  -18.1681   -3.7100 C   0  0  1  0  0  0  0  0  0  0  0  0
    8.2492  -19.5271   -2.9774 C   0  0  0  0  0  0  0  0  0  0  0  0
    2.9007  -17.1260   -4.2079 C   0  0  1  0  0  0  0  0  0  0  0  0
    3.1577  -15.5756   -4.5668 C   0  0  0  0  0  0  0  0  0  0  0  0
    4.6779  -15.1888   -4.3197 C   0  0  2  0  0  0  0  0  0  0  0  0
   10.8060  -18.5926   -4.2257 F   0  0  0  0  0  0  0  0  0  0  0  0
    9.0671  -13.7631   -4.3858 N   0  0  0  0  0  0  0  0  0  0  0  0
    8.9752  -20.6002   -3.5515 N   0  0  0  0  0  0  0  0  0  0  0  0
    1.4498  -17.3966   -4.4593 N   0  0  0  0  0  0  0  0  0  0  0  0
    4.9279  -13.7905   -4.6566 N   0  0  0  0  0  0  0  0  0  0  0  0
    6.8911  -15.6348   -4.9569 O   0  0  0  0  0  0  0  0  0  0  0  0
    6.2330  -18.4548   -5.7829 O   0  0  0  0  0  0  0  0  0  0  0  0
    3.6152  -19.3485   -4.9021 O   0  0  0  0  0  0  0  0  0  0  0  0
   11.1163  -15.7632   -4.3563 O   0  0  0  0  0  0  0  0  0  0  0  0
    7.4739  -17.0660   -3.1108 O   0  0  0  0  0  0  0  0  0  0  0  0
  1  5  1  0  0  0  0
  1 18  1  6  0  0  0
  2 18  1  1  0  0  0
  2  3  1  0  0  0  0
  2 12  1  0  0  0  0
  3 19  1  6  0  0  0
  3  4  1  0  0  0  0
  4 20  1  1  0  0  0
  4 10  1  0  0  0  0
  5  6  1  0  0  0  0
  5 14  1  6  0  0  0
  6 21  1  1  0  0  0
  7 13  1  6  0  0  0
  7  6  1  0  0  0  0
  8  9  1  1  0  0  0
  8  7  1  0  0  0  0
 10 16  1  6  0  0  0
 11 10  1  0  0  0  0
 12 17  1  6  0  0  0
 12 11  1  0  0  0  0
 15  9  1  0  0  0  0
 22  8  1  0  0  0  0
 22  1  1  0  0  0  0
M  END
>  <CHROM.1>
178.13212219,-60.21510586,-65.44323055,6.85992101,-16.96614742,-4.32626121
-0.03982676,-0.11087650,-0.06043030

>  <Name>
lig.pdb

>  <RI>
0

>  <Rbt.Current_Directory>
/home/itssahil/PROJECTS/Mol_Feturizer/New_Systems/rnas/5bxk

>  <Rbt.Executable>
rbdock ($Id: //depot/dev/client3/rdock/2013.1/src/exe/rbdock.cxx#4 $)

>  <Rbt.Library>
libRbt.so (2013.1, Build901 2013/11/27)

>  <Rbt.Parameter_File>
/export/apps/rDock/src/rDock_2013.1_src/data/scripts/dock_solv.prm

>  <Rbt.Receptor>
prm/blind_docking_100.prm

>  <SCORE>
-6.39383

>  <SCORE.INTER>
-3.28712

>  <SCORE.INTER.CONST>
1

>  <SCORE.INTER.POLAR>
0

>  <SCORE.INTER.ROT>
3

>  <SCORE.INTER.SOLV>
14.0134

>  <SCORE.INTER.VDW>
-12.4625

>  <SCORE.INTER.norm>
-0.149415

>  <SCORE.INTRA>
-3.10671

>  <SCORE.INTRA.DIHEDRAL>
-6.92288

>  <SCORE.INTRA.DIHEDRAL.0>
7.18044

>  <SCORE.INTRA.POLAR>
0

>  <SCORE.INTRA.POLAR.0>
0

>  <SCORE.INTRA.REPUL>
0

>  <SCORE.INTRA.REPUL.0>
0

>  <SCORE.INTRA.SOLV>
0.51697

>  <SCORE.INTRA.SOLV.lig_0>
-72.0615

>  <SCORE.INTRA.VDW>
0.0962504

>  <SCORE.INTRA.VDW.0>
-1.54792

>  <SCORE.INTRA.norm>
-0.141214

>  <SCORE.RESTR>
0

>  <SCORE.RESTR.CAVITY>
0

>  <SCORE.RESTR.norm>
0

>  <SCORE.SYSTEM>
0

>  <SCORE.SYSTEM.CONST>
0

>  <SCORE.SYSTEM.DIHEDRAL>
0

>  <SCORE.SYSTEM.SOLV>
0

>  <SCORE.SYSTEM.norm>
0

>  <SCORE.heavy>
22

>  <SCORE.norm>
-0.290629

>  <RMSD>
34.458

$$$$
lig.pdb
 OpenBabel11021811523D
libRbt.so/2013.1/901 2013/11/27
 22 23  0  0  0  0  0  0  0  0999 V2000
    8.1008  -16.2410   -3.8826 C   0  0  1  0  0  0  0  0  0  0  0  0
    6.1893  -17.0783   -5.2588 C   0  0  1  0  0  0  0  0  0  0  0  0
    6.2933  -18.6455   -4.7874 C   0  0  1  0  0  0  0  0  0  0  0  0
    4.8566  -19.3262   -5.0479 C   0  0  2  0  0  0  0  0  0  0  0  0
    9.3416  -15.2394   -3.8460 C   0  0  1  0  0  0  0  0  0  0  0  0
   10.5400  -15.8109   -4.6996 C   0  0  2  0  0  0  0  0  0  0  0  0
   11.0046  -17.2050   -4.0493 C   0  0  1  0  0  0  0  0  0  0  0  0
    9.7999  -18.2856   -4.1259 C   0  0  1  0  0  0  0  0  0  0  0  0
   10.1641  -19.6726   -3.5276 C   0  0  0  0  0  0  0  0  0  0  0  0
    3.7869  -18.5729   -4.1149 C   0  0  1  0  0  0  0  0  0  0  0  0
    3.7234  -17.0359   -4.5964 C   0  0  0  0  0  0  0  0  0  0  0  0
    5.1343  -16.3317   -4.4077 C   0  0  2  0  0  0  0  0  0  0  0  0
   12.1346  -17.7943   -4.7756 F   0  0  0  0  0  0  0  0  0  0  0  0
    8.8096  -13.9006   -4.3791 N   0  0  0  0  0  0  0  0  0  0  0  0
    9.1243  -20.6327   -3.5993 N   0  0  0  0  0  0  0  0  0  0  0  0
    2.4204  -19.1498   -4.3181 N   0  0  0  0  0  0  0  0  0  0  0  0
    5.0947  -14.9428   -4.8554 N   0  0  0  0  0  0  0  0  0  0  0  0
    7.3904  -16.3706   -5.0493 O   0  0  0  0  0  0  0  0  0  0  0  0
    7.3156  -19.3215   -5.6442 O   0  0  0  0  0  0  0  0  0  0  0  0
    4.9354  -20.6531   -4.6496 O   0  0  0  0  0  0  0  0  0  0  0  0
   11.4253  -15.0383   -4.6326 O   0  0  0  0  0  0  0  0  0  0  0  0
    8.5695  -17.6449   -3.3815 O   0  0  0  0  0  0  0  0  0  0  0  0
  1  5  1  0  0  0  0
  1 18  1  6  0  0  0
  2 18  1  1  0  0  0
  2  3  1  0  0  0  0
  2 12  1  0  0  0  0
  3 19  1  6  0  0  0
  3  4  1  0  0  0  0
  4 20  1  1  0  0  0
  4 10  1  0  0  0  0
  5  6  1  0  0  0  0
  5 14  1  6  0  0  0
  6 21  1  1  0  0  0
  7 13  1  6  0  0  0
  7  6  1  0  0  0  0
  8  9  1  1  0  0  0
  8  7  1  0  0  0  0
 10 16  1  6  0  0  0
 11 10  1  0  0  0  0
 12 17  1  6  0  0  0
 12 11  1  0  0  0  0
 15  9  1  0  0  0  0
 22  8  1  0  0  0  0
 22  1  1  0  0  0  0
M  END
>  <CHROM.1>
-172.55505022,-54.55018456,-179.41045327,7.63883457,-17.51690131,-4.45092764
0.26933145,-0.05997700,-0.04789656

>  <Name>
lig.pdb

>  <RI>
0

>  <Rbt.Current_Directory>
/home/itssahil/PROJECTS/Mol_Feturizer/New_Systems/rnas/5bxk

>  <Rbt.Executable>
rbdock ($Id: //depot/dev/client3/rdock/2013.1/src/exe/rbdock.cxx#4 $)

>  <Rbt.Library>
libRbt.so (2013.1, Build901 2013/11/27)

>  <Rbt.Parameter_File>
/export/apps/rDock/src/rDock_2013.1_src/data/scripts/dock_solv.prm

>  <Rbt.Receptor>
prm/blind_docking_100.prm

>  <SCORE>
-6.20942

>  <SCORE.INTER>
-3.47773

>  <SCORE.INTER.CONST>
1

>  <SCORE.INTER.POLAR>
0

>  <SCORE.INTER.ROT>
3

>  <SCORE.INTER.SOLV>
16.0736

>  <SCORE.INTER.VDW>
-13.2764

>  <SCORE.INTER.norm>
-0.158079

>  <SCORE.INTRA>
-2.73169

>  <SCORE.INTRA.DIHEDRAL>
-6.63807

>  <SCORE.INTRA.DIHEDRAL.0>
7.18044

>  <SCORE.INTRA.POLAR>
0

>  <SCORE.INTRA.POLAR.0>
0

>  <SCORE.INTRA.REPUL>
0

>  <SCORE.INTRA.REPUL.0>
0

>  <SCORE.INTRA.SOLV>
1.61817

>  <SCORE.INTRA.SOLV.lig_0>
-72.0615

>  <SCORE.INTRA.VDW>
-0.221738

>  <SCORE.INTRA.VDW.0>
-1.54792

>  <SCORE.INTRA.norm>
-0.124168

>  <SCORE.RESTR>
0

>  <SCORE.RESTR.CAVITY>
0

>  <SCORE.RESTR.norm>
0

>  <SCORE.SYSTEM>
0

>  <SCORE.SYSTEM.CONST>
0

>  <SCORE.SYSTEM.DIHEDRAL>
0

>  <SCORE.SYSTEM.SOLV>
0

>  <SCORE.SYSTEM.norm>
0

>  <SCORE.heavy>
22

>  <SCORE.norm>
-0.282247

>  <RMSD>
34.498

$$$$
lig.pdb
 OpenBabel11021811523D
libRbt.so/2013.1/901 2013/11/27
 22 23  0  0  0  0  0  0  0  0999 V2000
    7.6302  -16.6093   -3.8834 C   0  0  1  0  0  0  0  0  0  0  0  0
    5.8698  -17.9275   -5.0717 C   0  0  1  0  0  0  0  0  0  0  0  0
    6.3580  -19.3598   -4.4397 C   0  0  1  0  0  0  0  0  0  0  0  0
    5.1334  -20.3963   -4.5855 C   0  0  2  0  0  0  0  0  0  0  0  0
    8.5147  -15.2829   -3.9301 C   0  0  1  0  0  0  0  0  0  0  0  0
    9.7208  -15.4566   -4.9335 C   0  0  2  0  0  0  0  0  0  0  0  0
   10.6492  -16.6572   -4.4053 C   0  0  1  0  0  0  0  0  0  0  0  0
    9.8176  -18.0476   -4.4059 C   0  0  1  0  0  0  0  0  0  0  0  0
   10.6427  -19.2707   -3.9184 C   0  0  0  0  0  0  0  0  0  0  0  0
    3.9121  -19.8305   -3.7079 C   0  0  1  0  0  0  0  0  0  0  0  0
    3.4705  -18.4185   -4.3480 C   0  0  0  0  0  0  0  0  0  0  0  0
    4.6642  -17.3735   -4.2751 C   0  0  2  0  0  0  0  0  0  0  0  0
   11.8104  -16.8703   -5.2758 F   0  0  0  0  0  0  0  0  0  0  0  0
    7.5524  -14.1569   -4.3374 N   0  0  0  0  0  0  0  0  0  0  0  0
   11.1672  -19.1389   -2.6086 N   0  0  0  0  0  0  0  0  0  0  0  0
    2.7300  -20.7436   -3.8099 N   0  0  0  0  0  0  0  0  0  0  0  0
    4.2825  -16.0946   -4.8665 N   0  0  0  0  0  0  0  0  0  0  0  0
    6.8593  -16.9282   -4.9726 O   0  0  0  0  0  0  0  0  0  0  0  0
    7.5145  -19.8544   -5.2484 O   0  0  0  0  0  0  0  0  0  0  0  0
    5.5379  -21.6113   -4.0510 O   0  0  0  0  0  0  0  0  0  0  0  0
   10.3395  -14.4555   -4.9234 O   0  0  0  0  0  0  0  0  0  0  0  0
    8.5480  -17.8158   -3.5042 O   0  0  0  0  0  0  0  0  0  0  0  0
  1  5  1  0  0  0  0
  1 18  1  6  0  0  0
  2 18  1  1  0  0  0
  2  3  1  0  0  0  0
  2 12  1  0  0  0  0
  3 19  1  6  0  0  0
  3  4  1  0  0  0  0
  4 20  1  1  0  0  0
  4 10  1  0  0  0  0
  5  6  1  0  0  0  0
  5 14  1  6  0  0  0
  6 21  1  1  0  0  0
  7 13  1  6  0  0  0
  7  6  1  0  0  0  0
  8  9  1  1  0  0  0
  8  7  1  0  0  0  0
 10 16  1  6  0  0  0
 11 10  1  0  0  0  0
 12 17  1  6  0  0  0
 12 11  1  0  0  0  0
 15  9  1  0  0  0  0
 22  8  1  0  0  0  0
 22  1  1  0  0  0  0
M  END
>  <CHROM.1>
-169.94499862,-46.03242254,58.40519568,7.48376452,-17.83054183,-4.36149408
0.47857616,-0.03085301,-0.12334984

>  <Name>
lig.pdb

>  <RI>
0

>  <Rbt.Current_Directory>
/home/itssahil/PROJECTS/Mol_Feturizer/New_Systems/rnas/5bxk

>  <Rbt.Executable>
rbdock ($Id: //depot/dev/client3/rdock/2013.1/src/exe/rbdock.cxx#4 $)

>  <Rbt.Library>
libRbt.so (2013.1, Build901 2013/11/27)

>  <Rbt.Parameter_File>
/export/apps/rDock/src/rDock_2013.1_src/data/scripts/dock_solv.prm

>  <Rbt.Receptor>
prm/blind_docking_40.prm

>  <SCORE>
-5.34899

>  <SCORE.INTER>
-3.0859

>  <SCORE.INTER.CONST>
1

>  <SCORE.INTER.POLAR>
0

>  <SCORE.INTER.ROT>
3

>  <SCORE.INTER.SOLV>
18.191

>  <SCORE.INTER.VDW>
-13.7209

>  <SCORE.INTER.norm>
-0.140268

>  <SCORE.INTRA>
-2.26309

>  <SCORE.INTRA.DIHEDRAL>
-5.64627

>  <SCORE.INTRA.DIHEDRAL.0>
7.18044

>  <SCORE.INTRA.POLAR>
0

>  <SCORE.INTRA.POLAR.0>
0

>  <SCORE.INTRA.REPUL>
0

>  <SCORE.INTRA.REPUL.0>
0

>  <SCORE.INTRA.SOLV>
1.0919

>  <SCORE.INTRA.SOLV.lig_0>
-72.0615

>  <SCORE.INTRA.VDW>
0.0140915

>  <SCORE.INTRA.VDW.0>
-1.54792

>  <SCORE.INTRA.norm>
-0.102868

>  <SCORE.RESTR>
0

>  <SCORE.RESTR.CAVITY>
0

>  <SCORE.RESTR.norm>
0

>  <SCORE.SYSTEM>
0

>  <SCORE.SYSTEM.CONST>
0

>  <SCORE.SYSTEM.DIHEDRAL>
0

>  <SCORE.SYSTEM.SOLV>
0

>  <SCORE.SYSTEM.norm>
0

>  <SCORE.heavy>
22

>  <SCORE.norm>
-0.243136

>  <RMSD>
34.573

$$$$
lig.pdb
 OpenBabel11021811523D
libRbt.so/2013.1/901 2013/11/27
 22 23  0  0  0  0  0  0  0  0999 V2000
    5.9157  -18.8504   -4.9781 C   0  0  1  0  0  0  0  0  0  0  0  0
    6.8955  -16.6075   -4.4699 C   0  0  1  0  0  0  0  0  0  0  0  0
    6.2102  -15.2065   -3.9632 C   0  0  1  0  0  0  0  0  0  0  0  0
    7.2415  -14.0145   -4.2958 C   0  0  2  0  0  0  0  0  0  0  0  0
    5.0318  -18.7398   -6.3012 C   0  0  1  0  0  0  0  0  0  0  0  0
    3.5066  -18.5637   -5.9352 C   0  0  2  0  0  0  0  0  0  0  0  0
    3.0279  -19.8648   -5.1226 C   0  0  1  0  0  0  0  0  0  0  0  0
    3.8469  -19.9857   -3.7300 C   0  0  1  0  0  0  0  0  0  0  0  0
    3.4406  -21.2140   -2.8694 C   0  0  0  0  0  0  0  0  0  0  0  0
    8.5778  -14.2775   -3.4430 C   0  0  1  0  0  0  0  0  0  0  0  0
    9.2135  -15.6668   -3.9569 C   0  0  0  0  0  0  0  0  0  0  0  0
    8.2106  -16.8706   -3.6979 C   0  0  2  0  0  0  0  0  0  0  0  0
    1.6083  -19.7889   -4.7614 F   0  0  0  0  0  0  0  0  0  0  0  0
    5.6032  -17.5473   -7.0830 N   0  0  0  0  0  0  0  0  0  0  0  0
    4.2064  -21.3811   -1.6888 N   0  0  0  0  0  0  0  0  0  0  0  0
    9.5894  -13.2082   -3.7163 N   0  0  0  0  0  0  0  0  0  0  0  0
    8.7678  -18.1332   -4.1738 N   0  0  0  0  0  0  0  0  0  0  0  0
    6.0876  -17.7314   -4.2028 O   0  0  0  0  0  0  0  0  0  0  0  0
    4.9526  -14.9953   -4.7443 O   0  0  0  0  0  0  0  0  0  0  0  0
    6.6697  -12.8248   -3.8680 O   0  0  0  0  0  0  0  0  0  0  0  0
    2.9040  -18.4938   -6.9438 O   0  0  0  0  0  0  0  0  0  0  0  0
    5.3751  -20.0290   -4.1061 O   0  0  0  0  0  0  0  0  0  0  0  0
  1  5  1  0  0  0  0
  1 18  1  1  0  0  0
  2 18  1  1  0  0  0
  2  3  1  0  0  0  0
  2 12  1  0  0  0  0
  3 19  1  6  0  0  0
  3  4  1  0  0  0  0
  4 20  1  1  0  0  0
  4 10  1  0  0  0  0
  5  6  1  0  0  0  0
  5 14  1  1  0  0  0
  6 21  1  6  0  0  0
  7 13  1  1  0  0  0
  7  6  1  0  0  0  0
  8  9  1  6  0  0  0
  8  7  1  0  0  0  0
 10 16  1  6  0  0  0
 11 10  1  0  0  0  0
 12 17  1  6  0  0  0
 12 11  1  0  0  0  0
 15  9  1  0  0  0  0
 22  8  1  0  0  0  0
 22  1  1  0  0  0  0
M  END
>  <CHROM.1>
-73.95488096,143.21549816,176.20320105,5.68058980,-17.47622022,-4.46734186
-2.41744752,-0.53772516,-0.43231092

>  <Name>
lig.pdb

>  <RI>
0

>  <Rbt.Current_Directory>
/home/itssahil/PROJECTS/Mol_Feturizer/New_Systems/rnas/5bxk

>  <Rbt.Executable>
rbdock ($Id: //depot/dev/client3/rdock/2013.1/src/exe/rbdock.cxx#4 $)

>  <Rbt.Library>
libRbt.so (2013.1, Build901 2013/11/27)

>  <Rbt.Parameter_File>
/export/apps/rDock/src/rDock_2013.1_src/data/scripts/dock_solv.prm

>  <Rbt.Receptor>
prm/blind_docking_60.prm

>  <SCORE>
-4.32668

>  <SCORE.INTER>
-4.17995

>  <SCORE.INTER.CONST>
1

>  <SCORE.INTER.POLAR>
0

>  <SCORE.INTER.ROT>
3

>  <SCORE.INTER.SOLV>
20.0393

>  <SCORE.INTER.VDW>
-15.0664

>  <SCORE.INTER.norm>
-0.189998

>  <SCORE.INTRA>
-0.146737

>  <SCORE.INTRA.DIHEDRAL>
-1.25708

>  <SCORE.INTRA.DIHEDRAL.0>
7.18044

>  <SCORE.INTRA.POLAR>
0

>  <SCORE.INTRA.POLAR.0>
0

>  <SCORE.INTRA.REPUL>
0

>  <SCORE.INTRA.REPUL.0>
0

>  <SCORE.INTRA.SOLV>
1.01424

>  <SCORE.INTRA.SOLV.lig_0>
-72.0615

>  <SCORE.INTRA.VDW>
-0.0253154

>  <SCORE.INTRA.VDW.0>
-1.54792

>  <SCORE.INTRA.norm>
-0.00666985

>  <SCORE.RESTR>
0

>  <SCORE.RESTR.CAVITY>
0

>  <SCORE.RESTR.norm>
0

>  <SCORE.SYSTEM>
0

>  <SCORE.SYSTEM.CONST>
0

>  <SCORE.SYSTEM.DIHEDRAL>
0

>  <SCORE.SYSTEM.SOLV>
0

>  <SCORE.SYSTEM.norm>
0

>  <SCORE.heavy>
22

>  <SCORE.norm>
-0.196667

>  <RMSD>
34.641

$$$$
lig.pdb
 OpenBabel11021811523D
libRbt.so/2013.1/901 2013/11/27
 22 23  0  0  0  0  0  0  0  0999 V2000
    7.1889  -16.4504   -3.9151 C   0  0  1  0  0  0  0  0  0  0  0  0
    5.5839  -17.9511   -5.1070 C   0  0  1  0  0  0  0  0  0  0  0  0
    6.1756  -19.3441   -4.4755 C   0  0  1  0  0  0  0  0  0  0  0  0
    5.0240  -20.4629   -4.6059 C   0  0  2  0  0  0  0  0  0  0  0  0
    8.0219  -15.0937   -4.0127 C   0  0  1  0  0  0  0  0  0  0  0  0
    9.2962  -15.2906   -4.9231 C   0  0  2  0  0  0  0  0  0  0  0  0
   10.2349  -16.4049   -4.2452 C   0  0  1  0  0  0  0  0  0  0  0  0
    9.4602  -17.8266   -4.1864 C   0  0  1  0  0  0  0  0  0  0  0  0
   10.2994  -18.9711   -3.5535 C   0  0  0  0  0  0  0  0  0  0  0  0
    3.7753  -19.9792   -3.7179 C   0  0  1  0  0  0  0  0  0  0  0  0
    3.2313  -18.6033   -4.3578 C   0  0  0  0  0  0  0  0  0  0  0  0
    4.3508  -17.4785   -4.3001 C   0  0  2  0  0  0  0  0  0  0  0  0
   11.4575  -16.6328   -5.0230 F   0  0  0  0  0  0  0  0  0  0  0  0
    7.0446  -14.0460   -4.5665 N   0  0  0  0  0  0  0  0  0  0  0  0
   11.4905  -19.2812   -4.2558 N   0  0  0  0  0  0  0  0  0  0  0  0
    2.6579  -20.9718   -3.8053 N   0  0  0  0  0  0  0  0  0  0  0  0
    3.8762  -16.2310   -4.8916 N   0  0  0  0  0  0  0  0  0  0  0  0
    6.5032  -16.8858   -5.0209 O   0  0  0  0  0  0  0  0  0  0  0  0
    7.3555  -19.7610   -5.2943 O   0  0  0  0  0  0  0  0  0  0  0  0
    5.5163  -21.6452   -4.0717 O   0  0  0  0  0  0  0  0  0  0  0  0
    9.8733  -14.2653   -4.9546 O   0  0  0  0  0  0  0  0  0  0  0  0
    8.1269  -17.5826   -3.3857 O   0  0  0  0  0  0  0  0  0  0  0  0
  1  5  1  0  0  0  0
  1 18  1  6  0  0  0
  2 18  1  1  0  0  0
  2  3  1  0  0  0  0
  2 12  1  0  0  0  0
  3 19  1  6  0  0  0
  3  4  1  0  0  0  0
  4 20  1  1  0  0  0
  4 10  1  0  0  0  0
  5  6  1  0  0  0  0
  5 14  1  6  0  0  0
  6 21  1  1  0  0  0
  7 13  1  6  0  0  0
  7  6  1  0  0  0  0
  8  9  1  1  0  0  0
  8  7  1  0  0  0  0
 10 16  1  6  0  0  0
 11 10  1  0  0  0  0
 12 17  1  6  0  0  0
 12 11  1  0  0  0  0
 15  9  1  0  0  0  0
 22  8  1  0  0  0  0
 22  1  1  0  0  0  0
M  END
>  <CHROM.1>
-171.45971633,-51.17654671,-61.75973042,7.20266284,-17.77447985,-4.41026922
0.52257983,-0.00726035,-0.08615414

>  <Name>
lig.pdb

>  <RI>
0

>  <Rbt.Current_Directory>
/home/itssahil/PROJECTS/Mol_Feturizer/New_Systems/rnas/5bxk

>  <Rbt.Executable>
rbdock ($Id: //depot/dev/client3/rdock/2013.1/src/exe/rbdock.cxx#4 $)

>  <Rbt.Library>
libRbt.so (2013.1, Build901 2013/11/27)

>  <Rbt.Parameter_File>
/export/apps/rDock/src/rDock_2013.1_src/data/scripts/dock_solv.prm

>  <Rbt.Receptor>
prm/blind_docking_100.prm

>  <SCORE>
-6.2616

>  <SCORE.INTER>
-3.62864

>  <SCORE.INTER.CONST>
1

>  <SCORE.INTER.POLAR>
0

>  <SCORE.INTER.ROT>
3

>  <SCORE.INTER.SOLV>
18.1402

>  <SCORE.INTER.VDW>
-14.0658

>  <SCORE.INTER.norm>
-0.164938

>  <SCORE.INTRA>
-2.63296

>  <SCORE.INTRA.DIHEDRAL>
-6.31603

>  <SCORE.INTRA.DIHEDRAL.0>
7.18044

>  <SCORE.INTRA.POLAR>
0

>  <SCORE.INTRA.POLAR.0>
0

>  <SCORE.INTRA.REPUL>
0

>  <SCORE.INTRA.REPUL.0>
0

>  <SCORE.INTRA.SOLV>
0.94256

>  <SCORE.INTRA.SOLV.lig_0>
-72.0615

>  <SCORE.INTRA.VDW>
0.0537736

>  <SCORE.INTRA.VDW.0>
-1.54792

>  <SCORE.INTRA.norm>
-0.11968

>  <SCORE.RESTR>
0

>  <SCORE.RESTR.CAVITY>
0

>  <SCORE.RESTR.norm>
0

>  <SCORE.SYSTEM>
0

>  <SCORE.SYSTEM.CONST>
0

>  <SCORE.SYSTEM.DIHEDRAL>
0

>  <SCORE.SYSTEM.SOLV>
0

>  <SCORE.SYSTEM.norm>
0

>  <SCORE.heavy>
22

>  <SCORE.norm>
-0.284618

>  <RMSD>
34.690

$$$$
lig.pdb
 OpenBabel11021811523D
libRbt.so/2013.1/901 2013/11/27
 22 23  0  0  0  0  0  0  0  0999 V2000
    7.1380  -16.4524   -3.9069 C   0  0  1  0  0  0  0  0  0  0  0  0
    5.5539  -17.9825   -5.0892 C   0  0  1  0  0  0  0  0  0  0  0  0
    6.1790  -19.3648   -4.4665 C   0  0  1  0  0  0  0  0  0  0  0  0
    5.0491  -20.5064   -4.5902 C   0  0  2  0  0  0  0  0  0  0  0  0
    7.9686  -15.0953   -4.0175 C   0  0  1  0  0  0  0  0  0  0  0  0
    9.2424  -15.2982   -4.9271 C   0  0  2  0  0  0  0  0  0  0  0  0
   10.1837  -16.4047   -4.2399 C   0  0  1  0  0  0  0  0  0  0  0  0
    9.4115  -17.8271   -4.1675 C   0  0  1  0  0  0  0  0  0  0  0  0
   10.2531  -18.9643   -3.5249 C   0  0  0  0  0  0  0  0  0  0  0  0
    3.7984  -20.0503   -3.6903 C   0  0  1  0  0  0  0  0  0  0  0  0
    3.2214  -18.6841   -4.3219 C   0  0  0  0  0  0  0  0  0  0  0  0
    4.3184  -17.5370   -4.2707 C   0  0  2  0  0  0  0  0  0  0  0  0
   11.4059  -16.6375   -5.0167 F   0  0  0  0  0  0  0  0  0  0  0  0
    6.9889  -14.0543   -4.5800 N   0  0  0  0  0  0  0  0  0  0  0  0
   11.4493  -19.2718   -4.2197 N   0  0  0  0  0  0  0  0  0  0  0  0
    2.7007  -21.0651   -3.7709 N   0  0  0  0  0  0  0  0  0  0  0  0
    3.8137  -16.2979   -4.8547 N   0  0  0  0  0  0  0  0  0  0  0  0
    6.4521  -16.8991   -5.0081 O   0  0  0  0  0  0  0  0  0  0  0  0
    7.3600  -19.7557   -5.2963 O   0  0  0  0  0  0  0  0  0  0  0  0
    5.5697  -21.6798   -4.0633 O   0  0  0  0  0  0  0  0  0  0  0  0
    9.8178  -14.2723   -4.9685 O   0  0  0  0  0  0  0  0  0  0  0  0
    8.0784  -17.5781   -3.3679 O   0  0  0  0  0  0  0  0  0  0  0  0
  1  5  1  0  0  0  0
  1 18  1  6  0  0  0
  2 18  1  1  0  0  0
  2  3  1  0  0  0  0
  2 12  1  0  0  0  0
  3 19  1  6  0  0  0
  3  4  1  0  0  0  0
  4 20  1  1  0  0  0
  4 10  1  0  0  0  0
  5  6  1  0  0  0  0
  5 14  1  6  0  0  0
  6 21  1  1  0  0  0
  7 13  1  6  0  0  0
  7  6  1  0  0  0  0
  8  9  1  1  0  0  0
  8  7  1  0  0  0  0
 10 16  1  6  0  0  0
 11 10  1  0  0  0  0
 12 17  1  6  0  0  0
 12 11  1  0  0  0  0
 15  9  1  0  0  0  0
 22  8  1  0  0  0  0
 22  1  1  0  0  0  0
M  END
>  <CHROM.1>
-172.77444528,-51.19753006,-61.30155097,7.17567109,-17.79734600,-4.39650857
0.53701958,-0.00659677,-0.08945095

>  <Name>
lig.pdb

>  <RI>
0

>  <Rbt.Current_Directory>
/home/itssahil/PROJECTS/Mol_Feturizer/New_Systems/rnas/5bxk

>  <Rbt.Executable>
rbdock ($Id: //depot/dev/client3/rdock/2013.1/src/exe/rbdock.cxx#4 $)

>  <Rbt.Library>
libRbt.so (2013.1, Build901 2013/11/27)

>  <Rbt.Parameter_File>
/export/apps/rDock/src/rDock_2013.1_src/data/scripts/dock_solv.prm

>  <Rbt.Receptor>
prm/blind_docking_80.prm

>  <SCORE>
-6.27142

>  <SCORE.INTER>
-3.59561

>  <SCORE.INTER.CONST>
1

>  <SCORE.INTER.POLAR>
0

>  <SCORE.INTER.ROT>
3

>  <SCORE.INTER.SOLV>
18.1938

>  <SCORE.INTER.VDW>
-14.0617

>  <SCORE.INTER.norm>
-0.163437

>  <SCORE.INTRA>
-2.67581

>  <SCORE.INTRA.DIHEDRAL>
-6.41845

>  <SCORE.INTRA.DIHEDRAL.0>
7.18044

>  <SCORE.INTRA.POLAR>
0

>  <SCORE.INTRA.POLAR.0>
0

>  <SCORE.INTRA.REPUL>
0

>  <SCORE.INTRA.REPUL.0>
0

>  <SCORE.INTRA.SOLV>
0.913239

>  <SCORE.INTRA.SOLV.lig_0>
-72.0615

>  <SCORE.INTRA.VDW>
0.0767944

>  <SCORE.INTRA.VDW.0>
-1.54792

>  <SCORE.INTRA.norm>
-0.121628

>  <SCORE.RESTR>
0

>  <SCORE.RESTR.CAVITY>
0

>  <SCORE.RESTR.norm>
0

>  <SCORE.SYSTEM>
0

>  <SCORE.SYSTEM.CONST>
0

>  <SCORE.SYSTEM.DIHEDRAL>
0

>  <SCORE.SYSTEM.SOLV>
0

>  <SCORE.SYSTEM.norm>
0

>  <SCORE.heavy>
22

>  <SCORE.norm>
-0.285064

>  <RMSD>
34.691

$$$$
lig.pdb
 OpenBabel11021811523D
libRbt.so/2013.1/901 2013/11/27
 22 23  0  0  0  0  0  0  0  0999 V2000
    7.1025  -16.4412   -3.9031 C   0  0  1  0  0  0  0  0  0  0  0  0
    5.4667  -17.8945   -5.1117 C   0  0  1  0  0  0  0  0  0  0  0  0
    6.0435  -19.3081   -4.5130 C   0  0  1  0  0  0  0  0  0  0  0  0
    4.8750  -20.4077   -4.6565 C   0  0  2  0  0  0  0  0  0  0  0  0
    7.9752  -15.1088   -3.9884 C   0  0  1  0  0  0  0  0  0  0  0  0
    9.2411  -15.3336   -4.9041 C   0  0  2  0  0  0  0  0  0  0  0  0
   10.1478  -16.4824   -4.2405 C   0  0  1  0  0  0  0  0  0  0  0  0
    9.3314  -17.8811   -4.1948 C   0  0  1  0  0  0  0  0  0  0  0  0
   10.1377  -19.0566   -3.5763 C   0  0  0  0  0  0  0  0  0  0  0  0
    3.6402  -19.9244   -3.7489 C   0  0  1  0  0  0  0  0  0  0  0  0
    3.1110  -18.5284   -4.3568 C   0  0  0  0  0  0  0  0  0  0  0  0
    4.2468  -17.4209   -4.2856 C   0  0  2  0  0  0  0  0  0  0  0  0
   11.3613  -16.7381   -5.0239 F   0  0  0  0  0  0  0  0  0  0  0  0
    7.0281  -14.0267   -4.5285 N   0  0  0  0  0  0  0  0  0  0  0  0
    9.4519  -20.2967   -3.5677 N   0  0  0  0  0  0  0  0  0  0  0  0
    2.5082  -20.8993   -3.8471 N   0  0  0  0  0  0  0  0  0  0  0  0
    3.7855  -16.1552   -4.8482 N   0  0  0  0  0  0  0  0  0  0  0  0
    6.4017  -16.8442   -5.0117 O   0  0  0  0  0  0  0  0  0  0  0  0
    7.2109  -19.7250   -5.3494 O   0  0  0  0  0  0  0  0  0  0  0  0
    5.3546  -21.6073   -4.1500 O   0  0  0  0  0  0  0  0  0  0  0  0
    9.8483  -14.3256   -4.9262 O   0  0  0  0  0  0  0  0  0  0  0  0
    8.0077  -17.6062   -3.3882 O   0  0  0  0  0  0  0  0  0  0  0  0
  1  5  1  0  0  0  0
  1 18  1  6  0  0  0
  2 18  1  1  0  0  0
  2  3  1  0  0  0  0
  2 12  1  0  0  0  0
  3 19  1  6  0  0  0
  3  4  1  0  0  0  0
  4 20  1  1  0  0  0
  4 10  1  0  0  0  0
  5  6  1  0  0  0  0
  5 14  1  6  0  0  0
  6 21  1  1  0  0  0
  7 13  1  6  0  0  0
  7  6  1  0  0  0  0
  8  9  1  1  0  0  0
  8  7  1  0  0  0  0
 10 16  1  6  0  0  0
 11 10  1  0  0  0  0
 12 17  1  6  0  0  0
 12 11  1  0  0  0  0
 15  9  1  0  0  0  0
 22  8  1  0  0  0  0
 22  1  1  0  0  0  0
M  END
>  <CHROM.1>
-172.56059555,-51.14825723,-178.12420349,7.01009609,-17.81435523,-4.38619079
0.57129358,-0.02396512,-0.09946866

>  <Name>
lig.pdb

>  <RI>
0

>  <Rbt.Current_Directory>
/home/itssahil/PROJECTS/Mol_Feturizer/New_Systems/rnas/5bxk

>  <Rbt.Executable>
rbdock ($Id: //depot/dev/client3/rdock/2013.1/src/exe/rbdock.cxx#4 $)

>  <Rbt.Library>
libRbt.so (2013.1, Build901 2013/11/27)

>  <Rbt.Parameter_File>
/export/apps/rDock/src/rDock_2013.1_src/data/scripts/dock_solv.prm

>  <Rbt.Receptor>
prm/blind_docking_60.prm

>  <SCORE>
-6.38732

>  <SCORE.INTER>
-3.85286

>  <SCORE.INTER.CONST>
1

>  <SCORE.INTER.POLAR>
0

>  <SCORE.INTER.ROT>
3

>  <SCORE.INTER.SOLV>
17.2676

>  <SCORE.INTER.VDW>
-13.9244

>  <SCORE.INTER.norm>
-0.17513

>  <SCORE.INTRA>
-2.53445

>  <SCORE.INTRA.DIHEDRAL>
-6.39252

>  <SCORE.INTRA.DIHEDRAL.0>
7.18044

>  <SCORE.INTRA.POLAR>
0

>  <SCORE.INTRA.POLAR.0>
0

>  <SCORE.INTRA.REPUL>
0

>  <SCORE.INTRA.REPUL.0>
0

>  <SCORE.INTRA.SOLV>
1.66318

>  <SCORE.INTRA.SOLV.lig_0>
-72.0615

>  <SCORE.INTRA.VDW>
-0.169782

>  <SCORE.INTRA.VDW.0>
-1.54792

>  <SCORE.INTRA.norm>
-0.115202

>  <SCORE.RESTR>
0

>  <SCORE.RESTR.CAVITY>
0

>  <SCORE.RESTR.norm>
0

>  <SCORE.SYSTEM>
0

>  <SCORE.SYSTEM.CONST>
0

>  <SCORE.SYSTEM.DIHEDRAL>
0

>  <SCORE.SYSTEM.SOLV>
0

>  <SCORE.SYSTEM.norm>
0

>  <SCORE.heavy>
22

>  <SCORE.norm>
-0.290333

>  <RMSD>
34.733

$$$$
lig.pdb
 OpenBabel11021811523D
libRbt.so/2013.1/901 2013/11/27
 22 23  0  0  0  0  0  0  0  0999 V2000
    6.4845  -15.8950   -4.8748 C   0  0  1  0  0  0  0  0  0  0  0  0
    7.2906  -17.7191   -3.3678 C   0  0  1  0  0  0  0  0  0  0  0  0
    6.8137  -19.0604   -4.1820 C   0  0  1  0  0  0  0  0  0  0  0  0
    7.7941  -20.2635   -3.7503 C   0  0  2  0  0  0  0  0  0  0  0  0
    5.5327  -14.6208   -4.9957 C   0  0  1  0  0  0  0  0  0  0  0  0
    4.0178  -15.0625   -5.0303 C   0  0  2  0  0  0  0  0  0  0  0  0
    3.7883  -15.9816   -6.3283 C   0  0  1  0  0  0  0  0  0  0  0  0
    4.6812  -17.3294   -6.2227 C   0  0  1  0  0  0  0  0  0  0  0  0
    4.5140  -18.2876   -7.4345 C   0  0  0  0  0  0  0  0  0  0  0  0
    9.2797  -19.8710   -4.2206 C   0  0  1  0  0  0  0  0  0  0  0  0
    9.7073  -18.5432   -3.4127 C   0  0  0  0  0  0  0  0  0  0  0  0
    8.7365  -17.3369   -3.7653 C   0  0  2  0  0  0  0  0  0  0  0  0
    2.3931  -16.4187   -6.4458 F   0  0  0  0  0  0  0  0  0  0  0  0
    5.8720  -13.7339   -3.7882 N   0  0  0  0  0  0  0  0  0  0  0  0
    4.8564  -17.7157   -8.6850 N   0  0  0  0  0  0  0  0  0  0  0  0
   10.2489  -20.9455   -3.8366 N   0  0  0  0  0  0  0  0  0  0  0  0
    9.1032  -16.1317   -3.0275 N   0  0  0  0  0  0  0  0  0  0  0  0
    6.5149  -16.5871   -3.6905 O   0  0  0  0  0  0  0  0  0  0  0  0
    5.4190  -19.3911   -3.7560 O   0  0  0  0  0  0  0  0  0  0  0  0
    7.3984  -21.4026   -4.4368 O   0  0  0  0  0  0  0  0  0  0  0  0
    3.3647  -14.0880   -5.1256 O   0  0  0  0  0  0  0  0  0  0  0  0
    6.1776  -16.8691   -6.0575 O   0  0  0  0  0  0  0  0  0  0  0  0
  1  5  1  0  0  0  0
  1 18  1  1  0  0  0
  2 18  1  6  0  0  0
  2  3  1  0  0  0  0
  2 12  1  0  0  0  0
  3 19  1  1  0  0  0
  3  4  1  0  0  0  0
  4 20  1  6  0  0  0
  4 10  1  0  0  0  0
  5  6  1  0  0  0  0
  5 14  1  1  0  0  0
  6 21  1  6  0  0  0
  7 13  1  1  0  0  0
  7  6  1  0  0  0  0
  8  9  1  6  0  0  0
  8  7  1  0  0  0  0
 10 16  1  1  0  0  0
 11 10  1  0  0  0  0
 12 17  1  1  0  0  0
 12 11  1  0  0  0  0
 15  9  1  0  0  0  0
 22  8  1  0  0  0  0
 22  1  1  0  0  0  0
M  END
>  <CHROM.1>
-179.08904407,-69.25963401,59.20943388,6.27875679,-17.41601947,-4.86165019
-2.65463164,0.61077086,-2.80516614

>  <Name>
lig.pdb

>  <RI>
0

>  <Rbt.Current_Directory>
/home/itssahil/PROJECTS/Mol_Feturizer/New_Systems/rnas/5bxk

>  <Rbt.Executable>
rbdock ($Id: //depot/dev/client3/rdock/2013.1/src/exe/rbdock.cxx#4 $)

>  <Rbt.Library>
libRbt.so (2013.1, Build901 2013/11/27)

>  <Rbt.Parameter_File>
/export/apps/rDock/src/rDock_2013.1_src/data/scripts/dock_solv.prm

>  <Rbt.Receptor>
prm/blind_docking_100.prm

>  <SCORE>
-5.73096

>  <SCORE.INTER>
-2.8142

>  <SCORE.INTER.CONST>
1

>  <SCORE.INTER.POLAR>
0

>  <SCORE.INTER.ROT>
3

>  <SCORE.INTER.SOLV>
20.7736

>  <SCORE.INTER.VDW>
-14.4007

>  <SCORE.INTER.norm>
-0.127918

>  <SCORE.INTRA>
-2.91676

>  <SCORE.INTRA.DIHEDRAL>
-6.6241

>  <SCORE.INTRA.DIHEDRAL.0>
7.18044

>  <SCORE.INTRA.POLAR>
0

>  <SCORE.INTRA.POLAR.0>
0

>  <SCORE.INTRA.REPUL>
0

>  <SCORE.INTRA.REPUL.0>
0

>  <SCORE.INTRA.SOLV>
0.641477

>  <SCORE.INTRA.SOLV.lig_0>
-72.0615

>  <SCORE.INTRA.VDW>
0.0745507

>  <SCORE.INTRA.VDW.0>
-1.54792

>  <SCORE.INTRA.norm>
-0.13258

>  <SCORE.RESTR>
0

>  <SCORE.RESTR.CAVITY>
0

>  <SCORE.RESTR.norm>
0

>  <SCORE.SYSTEM>
0

>  <SCORE.SYSTEM.CONST>
0

>  <SCORE.SYSTEM.DIHEDRAL>
0

>  <SCORE.SYSTEM.SOLV>
0

>  <SCORE.SYSTEM.norm>
0

>  <SCORE.heavy>
22

>  <SCORE.norm>
-0.260498

>  <RMSD>
34.948

$$$$
lig.pdb
 OpenBabel11021811523D
libRbt.so/2013.1/901 2013/11/27
 22 23  0  0  0  0  0  0  0  0999 V2000
    7.4471  -15.9864   -3.9474 C   0  0  1  0  0  0  0  0  0  0  0  0
    5.4465  -16.7446   -5.2402 C   0  0  1  0  0  0  0  0  0  0  0  0
    4.5307  -16.0781   -6.4261 C   0  0  1  0  0  0  0  0  0  0  0  0
    3.1668  -16.9300   -6.5217 C   0  0  2  0  0  0  0  0  0  0  0  0
    7.6023  -14.5566   -3.2576 C   0  0  1  0  0  0  0  0  0  0  0  0
    8.5046  -13.6103   -4.1417 C   0  0  2  0  0  0  0  0  0  0  0  0
    9.9656  -14.2690   -4.2588 C   0  0  1  0  0  0  0  0  0  0  0  0
    9.8748  -15.6968   -5.0192 C   0  0  1  0  0  0  0  0  0  0  0  0
   11.2478  -16.4045   -5.1881 C   0  0  0  0  0  0  0  0  0  0  0  0
    3.5599  -18.4283   -6.9490 C   0  0  1  0  0  0  0  0  0  0  0  0
    4.4700  -19.0441   -5.7695 C   0  0  0  0  0  0  0  0  0  0  0  0
    5.8080  -18.2057   -5.5997 C   0  0  2  0  0  0  0  0  0  0  0  0
   10.8760  -13.4361   -5.0518 F   0  0  0  0  0  0  0  0  0  0  0  0
    6.1721  -14.0258   -3.0774 N   0  0  0  0  0  0  0  0  0  0  0  0
   12.2099  -15.6523   -5.9070 N   0  0  0  0  0  0  0  0  0  0  0  0
    2.3337  -19.2820   -7.0437 N   0  0  0  0  0  0  0  0  0  0  0  0
    6.6344  -18.7436   -4.5232 N   0  0  0  0  0  0  0  0  0  0  0  0
    6.6866  -16.0924   -5.0845 O   0  0  0  0  0  0  0  0  0  0  0  0
    4.2023  -14.6750   -6.0264 O   0  0  0  0  0  0  0  0  0  0  0  0
    2.3864  -16.3733   -7.5250 O   0  0  0  0  0  0  0  0  0  0  0  0
    8.5894  -12.5768   -3.5849 O   0  0  0  0  0  0  0  0  0  0  0  0
    8.8691  -16.5849   -4.1956 O   0  0  0  0  0  0  0  0  0  0  0  0
  1  5  1  0  0  0  0
  1 18  1  6  0  0  0
  2 18  1  6  0  0  0
  2  3  1  0  0  0  0
  2 12  1  0  0  0  0
  3 19  1  1  0  0  0
  3  4  1  0  0  0  0
  4 20  1  6  0  0  0
  4 10  1  0  0  0  0
  5  6  1  0  0  0  0
  5 14  1  6  0  0  0
  6 21  1  1  0  0  0
  7 13  1  6  0  0  0
  7  6  1  0  0  0  0
  8  9  1  1  0  0  0
  8  7  1  0  0  0  0
 10 16  1  1  0  0  0
 11 10  1  0  0  0  0
 12 17  1  1  0  0  0
 12 11  1  0  0  0  0
 15  9  1  0  0  0  0
 22  8  1  0  0  0  0
 22  1  1  0  0  0  0
M  END
>  <CHROM.1>
-111.37598783,151.77875015,-58.59766760,6.89489496,-15.99669124,-5.19958330
0.48960905,-0.14023999,0.30423780

>  <Name>
lig.pdb

>  <RI>
0

>  <Rbt.Current_Directory>
/home/itssahil/PROJECTS/Mol_Feturizer/New_Systems/rnas/5bxk

>  <Rbt.Executable>
rbdock ($Id: //depot/dev/client3/rdock/2013.1/src/exe/rbdock.cxx#4 $)

>  <Rbt.Library>
libRbt.so (2013.1, Build901 2013/11/27)

>  <Rbt.Parameter_File>
/export/apps/rDock/src/rDock_2013.1_src/data/scripts/dock_solv.prm

>  <Rbt.Receptor>
prm/blind_docking_40.prm

>  <SCORE>
-3.34432

>  <SCORE.INTER>
-5.72517

>  <SCORE.INTER.CONST>
1

>  <SCORE.INTER.POLAR>
0

>  <SCORE.INTER.ROT>
3

>  <SCORE.INTER.SOLV>
21.3715

>  <SCORE.INTER.VDW>
-16.5406

>  <SCORE.INTER.norm>
-0.260235

>  <SCORE.INTRA>
2.38085

>  <SCORE.INTRA.DIHEDRAL>
2.81141

>  <SCORE.INTRA.DIHEDRAL.0>
7.18044

>  <SCORE.INTRA.POLAR>
0

>  <SCORE.INTRA.POLAR.0>
0

>  <SCORE.INTRA.REPUL>
0

>  <SCORE.INTRA.REPUL.0>
0

>  <SCORE.INTRA.SOLV>
1.567

>  <SCORE.INTRA.SOLV.lig_0>
-72.0615

>  <SCORE.INTRA.VDW>
0.191644

>  <SCORE.INTRA.VDW.0>
-1.54792

>  <SCORE.INTRA.norm>
0.10822

>  <SCORE.RESTR>
0

>  <SCORE.RESTR.CAVITY>
0

>  <SCORE.RESTR.norm>
0

>  <SCORE.SYSTEM>
0

>  <SCORE.SYSTEM.CONST>
0

>  <SCORE.SYSTEM.DIHEDRAL>
0

>  <SCORE.SYSTEM.SOLV>
0

>  <SCORE.SYSTEM.norm>
0

>  <SCORE.heavy>
22

>  <SCORE.norm>
-0.152015

>  <RMSD>
35.101

$$$$
lig.pdb
 OpenBabel11021811523D
libRbt.so/2013.1/901 2013/11/27
 22 23  0  0  0  0  0  0  0  0999 V2000
    5.4683  -20.5859   -3.5677 C   0  0  1  0  0  0  0  0  0  0  0  0
    6.8862  -18.8625   -4.6937 C   0  0  1  0  0  0  0  0  0  0  0  0
    5.7749  -17.6592   -4.7732 C   0  0  1  0  0  0  0  0  0  0  0  0
    6.5761  -16.2660   -4.8835 C   0  0  2  0  0  0  0  0  0  0  0  0
    5.0658  -22.1291   -3.5408 C   0  0  1  0  0  0  0  0  0  0  0  0
    4.0807  -22.4652   -4.7274 C   0  0  2  0  0  0  0  0  0  0  0  0
    2.7422  -21.5970   -4.5351 C   0  0  1  0  0  0  0  0  0  0  0  0
    3.0846  -20.0161   -4.6260 C   0  0  1  0  0  0  0  0  0  0  0  0
    1.8431  -19.0962   -4.4614 C   0  0  0  0  0  0  0  0  0  0  0  0
    7.4344  -16.0924   -3.5362 C   0  0  1  0  0  0  0  0  0  0  0  0
    8.5029  -17.2983   -3.4850 C   0  0  0  0  0  0  0  0  0  0  0  0
    7.7609  -18.7011   -3.4273 C   0  0  2  0  0  0  0  0  0  0  0  0
    1.7613  -21.8684   -5.5913 F   0  0  0  0  0  0  0  0  0  0  0  0
    6.3895  -22.9042   -3.6216 N   0  0  0  0  0  0  0  0  0  0  0  0
    2.1237  -17.7107   -4.5594 N   0  0  0  0  0  0  0  0  0  0  0  0
    8.2182  -14.8175   -3.5782 N   0  0  0  0  0  0  0  0  0  0  0  0
    8.7178  -19.8032   -3.3969 N   0  0  0  0  0  0  0  0  0  0  0  0
    6.2952  -20.1359   -4.5659 O   0  0  0  0  0  0  0  0  0  0  0  0
    4.9653  -17.8558   -6.0151 O   0  0  0  0  0  0  0  0  0  0  0  0
    5.6424  -15.2417   -4.9493 O   0  0  0  0  0  0  0  0  0  0  0  0
    3.8138  -23.6093   -4.6556 O   0  0  0  0  0  0  0  0  0  0  0  0
    4.1663  -19.7230   -3.5203 O   0  0  0  0  0  0  0  0  0  0  0  0
  1  5  1  0  0  0  0
  1 18  1  6  0  0  0
  2 18  1  1  0  0  0
  2  3  1  0  0  0  0
  2 12  1  0  0  0  0
  3 19  1  6  0  0  0
  3  4  1  0  0  0  0
  4 20  1  1  0  0  0
  4 10  1  0  0  0  0
  5  6  1  0  0  0  0
  5 14  1  6  0  0  0
  6 21  1  1  0  0  0
  7 13  1  6  0  0  0
  7  6  1  0  0  0  0
  8  9  1  1  0  0  0
  8  7  1  0  0  0  0
 10 16  1  6  0  0  0
 11 10  1  0  0  0  0
 12 17  1  6  0  0  0
 12 11  1  0  0  0  0
 15  9  1  0  0  0  0
 22  8  1  0  0  0  0
 22  1  1  0  0  0  0
M  END
>  <CHROM.1>
-172.45414206,-59.65021203,-179.06297112,5.25931769,-19.32964688,-4.34169317
-2.22650195,-0.25287024,-0.09546796

>  <Name>
lig.pdb

>  <RI>
0

>  <Rbt.Current_Directory>
/home/itssahil/PROJECTS/Mol_Feturizer/New_Systems/rnas/5bxk

>  <Rbt.Executable>
rbdock ($Id: //depot/dev/client3/rdock/2013.1/src/exe/rbdock.cxx#4 $)

>  <Rbt.Library>
libRbt.so (2013.1, Build901 2013/11/27)

>  <Rbt.Parameter_File>
/export/apps/rDock/src/rDock_2013.1_src/data/scripts/dock_solv.prm

>  <Rbt.Receptor>
prm/blind_docking_40.prm

>  <SCORE>
-6.6644

>  <SCORE.INTER>
-3.78613

>  <SCORE.INTER.CONST>
1

>  <SCORE.INTER.POLAR>
0

>  <SCORE.INTER.ROT>
3

>  <SCORE.INTER.SOLV>
11.5599

>  <SCORE.INTER.VDW>
-11.9774

>  <SCORE.INTER.norm>
-0.172097

>  <SCORE.INTRA>
-2.87827

>  <SCORE.INTRA.DIHEDRAL>
-6.77405

>  <SCORE.INTRA.DIHEDRAL.0>
7.18044

>  <SCORE.INTRA.POLAR>
0

>  <SCORE.INTRA.POLAR.0>
0

>  <SCORE.INTRA.REPUL>
0

>  <SCORE.INTRA.REPUL.0>
0

>  <SCORE.INTRA.SOLV>
1.49705

>  <SCORE.INTRA.SOLV.lig_0>
-72.0615

>  <SCORE.INTRA.VDW>
-0.239771

>  <SCORE.INTRA.VDW.0>
-1.54792

>  <SCORE.INTRA.norm>
-0.13083

>  <SCORE.RESTR>
0

>  <SCORE.RESTR.CAVITY>
0

>  <SCORE.RESTR.norm>
0

>  <SCORE.SYSTEM>
0

>  <SCORE.SYSTEM.CONST>
0

>  <SCORE.SYSTEM.DIHEDRAL>
0

>  <SCORE.SYSTEM.SOLV>
0

>  <SCORE.SYSTEM.norm>
0

>  <SCORE.heavy>
22

>  <SCORE.norm>
-0.302927

>  <RMSD>
35.209

$$$$
lig.pdb
 OpenBabel11021811523D
libRbt.so/2013.1/901 2013/11/27
 22 23  0  0  0  0  0  0  0  0999 V2000
    7.9568  -19.2239   -4.8645 C   0  0  1  0  0  0  0  0  0  0  0  0
    7.2712  -21.5327   -4.1954 C   0  0  1  0  0  0  0  0  0  0  0  0
    8.6027  -22.3792   -4.6423 C   0  0  1  0  0  0  0  0  0  0  0  0
    8.1554  -23.9131   -4.8477 C   0  0  2  0  0  0  0  0  0  0  0  0
    8.3145  -17.7614   -4.3379 C   0  0  1  0  0  0  0  0  0  0  0  0
    7.0075  -17.0005   -3.8860 C   0  0  2  0  0  0  0  0  0  0  0  0
    6.0433  -16.8492   -5.1626 C   0  0  1  0  0  0  0  0  0  0  0  0
    5.5903  -18.3103   -5.6962 C   0  0  1  0  0  0  0  0  0  0  0  0
    4.6435  -18.2613   -6.9273 C   0  0  0  0  0  0  0  0  0  0  0  0
    7.6427  -24.4630   -3.4276 C   0  0  1  0  0  0  0  0  0  0  0  0
    6.3458  -23.5993   -3.0147 C   0  0  0  0  0  0  0  0  0  0  0  0
    6.7242  -22.0659   -2.8495 C   0  0  2  0  0  0  0  0  0  0  0  0
    4.8089  -16.1301   -4.8299 F   0  0  0  0  0  0  0  0  0  0  0  0
    9.3161  -17.9671   -3.1915 N   0  0  0  0  0  0  0  0  0  0  0  0
    3.3930  -17.6422   -6.6801 N   0  0  0  0  0  0  0  0  0  0  0  0
    7.1967  -25.8869   -3.5502 N   0  0  0  0  0  0  0  0  0  0  0  0
    5.5544  -21.2694   -2.4912 N   0  0  0  0  0  0  0  0  0  0  0  0
    7.5509  -20.1714   -3.9590 O   0  0  0  0  0  0  0  0  0  0  0  0
    9.0841  -21.8326   -5.9484 O   0  0  0  0  0  0  0  0  0  0  0  0
    9.2776  -24.6372   -5.2244 O   0  0  0  0  0  0  0  0  0  0  0  0
    7.3286  -15.9309   -3.5144 O   0  0  0  0  0  0  0  0  0  0  0  0
    6.9112  -19.1035   -6.0196 O   0  0  0  0  0  0  0  0  0  0  0  0
  1  5  1  0  0  0  0
  1 18  1  1  0  0  0
  2 18  1  1  0  0  0
  2  3  1  0  0  0  0
  2 12  1  0  0  0  0
  3 19  1  6  0  0  0
  3  4  1  0  0  0  0
  4 20  1  1  0  0  0
  4 10  1  0  0  0  0
  5  6  1  0  0  0  0
  5 14  1  1  0  0  0
  6 21  1  6  0  0  0
  7 13  1  1  0  0  0
  7  6  1  0  0  0  0
  8  9  1  6  0  0  0
  8  7  1  0  0  0  0
 10 16  1  6  0  0  0
 11 10  1  0  0  0  0
 12 17  1  6  0  0  0
 12 11  1  0  0  0  0
 15  9  1  0  0  0  0
 22  8  1  0  0  0  0
 22  1  1  0  0  0  0
M  END
>  <CHROM.1>
-175.64951991,65.75597500,-63.54980887,7.01942319,-20.20328155,-4.53416797
-1.86167346,0.37998936,3.12092194

>  <Name>
lig.pdb

>  <RI>
0

>  <Rbt.Current_Directory>
/home/itssahil/PROJECTS/Mol_Feturizer/New_Systems/rnas/5bxk

>  <Rbt.Executable>
rbdock ($Id: //depot/dev/client3/rdock/2013.1/src/exe/rbdock.cxx#4 $)

>  <Rbt.Library>
libRbt.so (2013.1, Build901 2013/11/27)

>  <Rbt.Parameter_File>
/export/apps/rDock/src/rDock_2013.1_src/data/scripts/dock_solv.prm

>  <Rbt.Receptor>
prm/blind_docking_100.prm

>  <SCORE>
-5.36414

>  <SCORE.INTER>
-1.66004

>  <SCORE.INTER.CONST>
1

>  <SCORE.INTER.POLAR>
0

>  <SCORE.INTER.ROT>
3

>  <SCORE.INTER.SOLV>
17.2448

>  <SCORE.INTER.VDW>
-12.455

>  <SCORE.INTER.norm>
-0.0754564

>  <SCORE.INTRA>
-3.7041

>  <SCORE.INTRA.DIHEDRAL>
-6.74851

>  <SCORE.INTRA.DIHEDRAL.0>
7.18044

>  <SCORE.INTRA.POLAR>
0

>  <SCORE.INTRA.POLAR.0>
0

>  <SCORE.INTRA.REPUL>
0

>  <SCORE.INTRA.REPUL.0>
0

>  <SCORE.INTRA.SOLV>
-0.821161

>  <SCORE.INTRA.SOLV.lig_0>
-72.0615

>  <SCORE.INTRA.VDW>
0.0807368

>  <SCORE.INTRA.VDW.0>
-1.54792

>  <SCORE.INTRA.norm>
-0.168368

>  <SCORE.RESTR>
0

>  <SCORE.RESTR.CAVITY>
0

>  <SCORE.RESTR.norm>
0

>  <SCORE.SYSTEM>
0

>  <SCORE.SYSTEM.CONST>
0

>  <SCORE.SYSTEM.DIHEDRAL>
0

>  <SCORE.SYSTEM.SOLV>
0

>  <SCORE.SYSTEM.norm>
0

>  <SCORE.heavy>
22

>  <SCORE.norm>
-0.243825

>  <RMSD>
35.488

$$$$
lig.pdb
 OpenBabel11021811523D
libRbt.so/2013.1/901 2013/11/27
 22 23  0  0  0  0  0  0  0  0999 V2000
    3.5827  -17.3626   -5.5456 C   0  0  1  0  0  0  0  0  0  0  0  0
    5.2475  -15.7508   -4.6080 C   0  0  1  0  0  0  0  0  0  0  0  0
    6.6505  -16.5409   -4.9189 C   0  0  1  0  0  0  0  0  0  0  0  0
    7.7590  -15.9824   -3.8921 C   0  0  2  0  0  0  0  0  0  0  0  0
    2.8926  -17.7918   -6.9180 C   0  0  1  0  0  0  0  0  0  0  0  0
    1.5923  -16.9349   -7.1757 C   0  0  2  0  0  0  0  0  0  0  0  0
    0.5533  -17.2212   -5.9837 C   0  0  1  0  0  0  0  0  0  0  0  0
    1.1782  -16.7357   -4.5700 C   0  0  1  0  0  0  0  0  0  0  0  0
    0.2345  -16.9644   -3.3569 C   0  0  0  0  0  0  0  0  0  0  0  0
    7.9634  -14.4191   -4.2025 C   0  0  1  0  0  0  0  0  0  0  0  0
    6.5632  -13.6795   -3.9010 C   0  0  0  0  0  0  0  0  0  0  0  0
    5.4212  -14.2331   -4.8556 C   0  0  2  0  0  0  0  0  0  0  0  0
   -0.6968  -16.4747   -6.1607 F   0  0  0  0  0  0  0  0  0  0  0  0
    3.9649  -17.5960   -8.0003 N   0  0  0  0  0  0  0  0  0  0  0  0
    0.6640  -16.3465   -2.1561 N   0  0  0  0  0  0  0  0  0  0  0  0
    8.9764  -13.8307   -3.2701 N   0  0  0  0  0  0  0  0  0  0  0  0
    4.1434  -13.5825   -4.5817 N   0  0  0  0  0  0  0  0  0  0  0  0
    4.2046  -16.1417   -5.4721 O   0  0  0  0  0  0  0  0  0  0  0  0
    6.4319  -17.9967   -4.6561 O   0  0  0  0  0  0  0  0  0  0  0  0
    8.9507  -16.6450   -4.1500 O   0  0  0  0  0  0  0  0  0  0  0  0
    1.1235  -17.2962   -8.1931 O   0  0  0  0  0  0  0  0  0  0  0  0
    2.5406  -17.5039   -4.3898 O   0  0  0  0  0  0  0  0  0  0  0  0
  1  5  1  0  0  0  0
  1 18  1  6  0  0  0
  2 18  1  6  0  0  0
  2  3  1  0  0  0  0
  2 12  1  0  0  0  0
  3 19  1  1  0  0  0
  3  4  1  0  0  0  0
  4 20  1  6  0  0  0
  4 10  1  0  0  0  0
  5  6  1  0  0  0  0
  5 14  1  6  0  0  0
  6 21  1  6  0  0  0
  7 13  1  6  0  0  0
  7  6  1  0  0  0  0
  8  9  1  1  0  0  0
  8  7  1  0  0  0  0
 10 16  1  1  0  0  0
 11 10  1  0  0  0  0
 12 17  1  1  0  0  0
 12 11  1  0  0  0  0
 15  9  1  0  0  0  0
 22  8  1  0  0  0  0
 22  1  1  0  0  0  0
M  END
>  <CHROM.1>
-154.93681788,66.82442743,-169.87940759,4.02362609,-16.25853932,-5.06456741
-2.80972259,0.08770824,1.00755905

>  <Name>
lig.pdb

>  <RI>
0

>  <Rbt.Current_Directory>
/home/itssahil/PROJECTS/Mol_Feturizer/New_Systems/rnas/5bxk

>  <Rbt.Executable>
rbdock ($Id: //depot/dev/client3/rdock/2013.1/src/exe/rbdock.cxx#4 $)

>  <Rbt.Library>
libRbt.so (2013.1, Build901 2013/11/27)

>  <Rbt.Parameter_File>
/export/apps/rDock/src/rDock_2013.1_src/data/scripts/dock_solv.prm

>  <Rbt.Receptor>
prm/blind_docking_20.prm

>  <SCORE>
-5.06566

>  <SCORE.INTER>
-2.5324

>  <SCORE.INTER.CONST>
1

>  <SCORE.INTER.POLAR>
0

>  <SCORE.INTER.ROT>
3

>  <SCORE.INTER.SOLV>
16.5429

>  <SCORE.INTER.VDW>
-12.8026

>  <SCORE.INTER.norm>
-0.115109

>  <SCORE.INTRA>
-2.53326

>  <SCORE.INTRA.DIHEDRAL>
-3.87396

>  <SCORE.INTRA.DIHEDRAL.0>
7.18044

>  <SCORE.INTRA.POLAR>
0

>  <SCORE.INTRA.POLAR.0>
0

>  <SCORE.INTRA.REPUL>
0

>  <SCORE.INTRA.REPUL.0>
0

>  <SCORE.INTRA.SOLV>
-1.35696

>  <SCORE.INTRA.SOLV.lig_0>
-72.0615

>  <SCORE.INTRA.VDW>
0.0822043

>  <SCORE.INTRA.VDW.0>
-1.54792

>  <SCORE.INTRA.norm>
-0.115148

>  <SCORE.RESTR>
0

>  <SCORE.RESTR.CAVITY>
0

>  <SCORE.RESTR.norm>
0

>  <SCORE.SYSTEM>
0

>  <SCORE.SYSTEM.CONST>
0

>  <SCORE.SYSTEM.DIHEDRAL>
0

>  <SCORE.SYSTEM.SOLV>
0

>  <SCORE.SYSTEM.norm>
0

>  <SCORE.heavy>
22

>  <SCORE.norm>
-0.230257

>  <RMSD>
35.633

$$$$
lig.pdb
 OpenBabel11021811523D
libRbt.so/2013.1/901 2013/11/27
 22 23  0  0  0  0  0  0  0  0999 V2000
    4.2468  -17.5914   -4.2684 C   0  0  1  0  0  0  0  0  0  0  0  0
    4.3101  -19.9214   -5.1716 C   0  0  1  0  0  0  0  0  0  0  0  0
    5.5027  -20.4170   -4.1610 C   0  0  1  0  0  0  0  0  0  0  0  0
    5.4491  -22.0259   -4.1005 C   0  0  2  0  0  0  0  0  0  0  0  0
    3.8913  -16.0752   -4.6131 C   0  0  1  0  0  0  0  0  0  0  0  0
    5.0564  -15.4081   -5.4431 C   0  0  2  0  0  0  0  0  0  0  0  0
    6.3875  -15.4163   -4.5430 C   0  0  1  0  0  0  0  0  0  0  0  0
    6.8352  -16.9400   -4.2224 C   0  0  1  0  0  0  0  0  0  0  0  0
    8.1250  -17.0458   -3.3624 C   0  0  0  0  0  0  0  0  0  0  0  0
    4.0297  -22.4405   -3.4717 C   0  0  1  0  0  0  0  0  0  0  0  0
    2.8845  -21.9248   -4.4822 C   0  0  0  0  0  0  0  0  0  0  0  0
    2.9282  -20.3431   -4.6170 C   0  0  2  0  0  0  0  0  0  0  0  0
    7.5180  -14.7913   -5.2379 F   0  0  0  0  0  0  0  0  0  0  0  0
    2.5608  -16.1253   -5.3794 N   0  0  0  0  0  0  0  0  0  0  0  0
    9.2800  -16.4915   -3.9683 N   0  0  0  0  0  0  0  0  0  0  0  0
    3.9072  -23.9309   -3.3988 N   0  0  0  0  0  0  0  0  0  0  0  0
    1.9058  -19.8640   -5.5424 N   0  0  0  0  0  0  0  0  0  0  0  0
    4.2435  -18.5175   -5.2808 O   0  0  0  0  0  0  0  0  0  0  0  0
    6.8126  -19.9944   -4.7456 O   0  0  0  0  0  0  0  0  0  0  0  0
    6.4546  -22.4537   -3.2452 O   0  0  0  0  0  0  0  0  0  0  0  0
    4.7447  -14.2947   -5.6632 O   0  0  0  0  0  0  0  0  0  0  0  0
    5.6127  -17.6306   -3.5104 O   0  0  0  0  0  0  0  0  0  0  0  0
  1  5  1  0  0  0  0
  1 18  1  6  0  0  0
  2 18  1  1  0  0  0
  2  3  1  0  0  0  0
  2 12  1  0  0  0  0
  3 19  1  6  0  0  0
  3  4  1  0  0  0  0
  4 20  1  1  0  0  0
  4 10  1  0  0  0  0
  5  6  1  0  0  0  0
  5 14  1  6  0  0  0
  6 21  1  1  0  0  0
  7 13  1  6  0  0  0
  7  6  1  0  0  0  0
  8  9  1  1  0  0  0
  8  7  1  0  0  0  0
 10 16  1  6  0  0  0
 11 10  1  0  0  0  0
 12 17  1  6  0  0  0
 12 11  1  0  0  0  0
 15  9  1  0  0  0  0
 22  8  1  0  0  0  0
 22  1  1  0  0  0  0
M  END
>  <CHROM.1>
-168.72879732,-47.93830889,-61.80973526,5.18284164,-18.55674535,-4.48699795
1.26008749,-0.24777106,-0.19762728

>  <Name>
lig.pdb

>  <RI>
0

>  <Rbt.Current_Directory>
/home/itssahil/PROJECTS/Mol_Feturizer/New_Systems/rnas/5bxk

>  <Rbt.Executable>
rbdock ($Id: //depot/dev/client3/rdock/2013.1/src/exe/rbdock.cxx#4 $)

>  <Rbt.Library>
libRbt.so (2013.1, Build901 2013/11/27)

>  <Rbt.Parameter_File>
/export/apps/rDock/src/rDock_2013.1_src/data/scripts/dock_solv.prm

>  <Rbt.Receptor>
prm/blind_docking_60.prm

>  <SCORE>
-3.79237

>  <SCORE.INTER>
-1.4854

>  <SCORE.INTER.CONST>
1

>  <SCORE.INTER.POLAR>
0

>  <SCORE.INTER.ROT>
3

>  <SCORE.INTER.SOLV>
14.5487

>  <SCORE.INTER.VDW>
-11.4399

>  <SCORE.INTER.norm>
-0.0675184

>  <SCORE.INTRA>
-2.30697

>  <SCORE.INTRA.DIHEDRAL>
-5.75298

>  <SCORE.INTRA.DIHEDRAL.0>
7.18044

>  <SCORE.INTRA.POLAR>
0

>  <SCORE.INTRA.POLAR.0>
0

>  <SCORE.INTRA.REPUL>
0

>  <SCORE.INTRA.REPUL.0>
0

>  <SCORE.INTRA.SOLV>
1.02711

>  <SCORE.INTRA.SOLV.lig_0>
-72.0615

>  <SCORE.INTRA.VDW>
0.0559649

>  <SCORE.INTRA.VDW.0>
-1.54792

>  <SCORE.INTRA.norm>
-0.104862

>  <SCORE.RESTR>
0

>  <SCORE.RESTR.CAVITY>
0

>  <SCORE.RESTR.norm>
0

>  <SCORE.SYSTEM>
0

>  <SCORE.SYSTEM.CONST>
0

>  <SCORE.SYSTEM.DIHEDRAL>
0

>  <SCORE.SYSTEM.SOLV>
0

>  <SCORE.SYSTEM.norm>
0

>  <SCORE.heavy>
22

>  <SCORE.norm>
-0.172381

>  <RMSD>
35.641

$$$$
lig.pdb
 OpenBabel11021811523D
libRbt.so/2013.1/901 2013/11/27
 22 23  0  0  0  0  0  0  0  0999 V2000
    6.5887  -17.5138   -5.2542 C   0  0  1  0  0  0  0  0  0  0  0  0
    6.3874  -19.8872   -4.4961 C   0  0  1  0  0  0  0  0  0  0  0  0
    7.9443  -20.3411   -4.2528 C   0  0  1  0  0  0  0  0  0  0  0  0
    8.0079  -21.9452   -4.3863 C   0  0  2  0  0  0  0  0  0  0  0  0
    6.4824  -15.9889   -4.7985 C   0  0  1  0  0  0  0  0  0  0  0  0
    4.9713  -15.5416   -4.7095 C   0  0  2  0  0  0  0  0  0  0  0  0
    4.3181  -15.6721   -6.1719 C   0  0  1  0  0  0  0  0  0  0  0  0
    4.3355  -17.2185   -6.6549 C   0  0  1  0  0  0  0  0  0  0  0  0
    3.7109  -17.4425   -8.0600 C   0  0  0  0  0  0  0  0  0  0  0  0
    7.0971  -22.5656   -3.2168 C   0  0  1  0  0  0  0  0  0  0  0  0
    5.5806  -22.0867   -3.4799 C   0  0  0  0  0  0  0  0  0  0  0  0
    5.4736  -20.5038   -3.4099 C   0  0  2  0  0  0  0  0  0  0  0  0
    2.9125  -15.2529   -6.1793 F   0  0  0  0  0  0  0  0  0  0  0  0
    7.2131  -15.9073   -3.4498 N   0  0  0  0  0  0  0  0  0  0  0  0
    3.6275  -18.8011   -8.4541 N   0  0  0  0  0  0  0  0  0  0  0  0
    7.1008  -24.0609   -3.2910 N   0  0  0  0  0  0  0  0  0  0  0  0
    4.1074  -20.0557   -3.6627 N   0  0  0  0  0  0  0  0  0  0  0  0
    6.2055  -18.4945   -4.3745 O   0  0  0  0  0  0  0  0  0  0  0  0
    8.7806  -19.7285   -5.3306 O   0  0  0  0  0  0  0  0  0  0  0  0
    9.3227  -22.3380   -4.1797 O   0  0  0  0  0  0  0  0  0  0  0  0
    4.9530  -14.4128   -4.3766 O   0  0  0  0  0  0  0  0  0  0  0  0
    5.8373  -17.6888   -6.6131 O   0  0  0  0  0  0  0  0  0  0  0  0
  1  5  1  0  0  0  0
  1 18  1  1  0  0  0
  2 18  1  1  0  0  0
  2  3  1  0  0  0  0
  2 12  1  0  0  0  0
  3 19  1  6  0  0  0
  3  4  1  0  0  0  0
  4 20  1  1  0  0  0
  4 10  1  0  0  0  0
  5  6  1  0  0  0  0
  5 14  1  1  0  0  0
  6 21  1  6  0  0  0
  7 13  1  1  0  0  0
  7  6  1  0  0  0  0
  8  9  1  6  0  0  0
  8  7  1  0  0  0  0
 10 16  1  6  0  0  0
 11 10  1  0  0  0  0
 12 17  1  6  0  0  0
 12 11  1  0  0  0  0
 15  9  1  0  0  0  0
 22  8  1  0  0  0  0
 22  1  1  0  0  0  0
M  END
>  <CHROM.1>
-170.43330901,73.42954998,-175.50657302,5.93143273,-18.73088126,-4.97288364
-2.13819824,0.65667792,-3.10071660

>  <Name>
lig.pdb

>  <RI>
0

>  <Rbt.Current_Directory>
/home/itssahil/PROJECTS/Mol_Feturizer/New_Systems/rnas/5bxk

>  <Rbt.Executable>
rbdock ($Id: //depot/dev/client3/rdock/2013.1/src/exe/rbdock.cxx#4 $)

>  <Rbt.Library>
libRbt.so (2013.1, Build901 2013/11/27)

>  <Rbt.Parameter_File>
/export/apps/rDock/src/rDock_2013.1_src/data/scripts/dock_solv.prm

>  <Rbt.Receptor>
prm/blind_docking_80.prm

>  <SCORE>
-5.80298

>  <SCORE.INTER>
-2.17543

>  <SCORE.INTER.CONST>
1

>  <SCORE.INTER.POLAR>
0

>  <SCORE.INTER.ROT>
3

>  <SCORE.INTER.SOLV>
14.8724

>  <SCORE.INTER.VDW>
-12.0077

>  <SCORE.INTER.norm>
-0.098883

>  <SCORE.INTRA>
-3.62755

>  <SCORE.INTRA.DIHEDRAL>
-5.69171

>  <SCORE.INTRA.DIHEDRAL.0>
7.18044

>  <SCORE.INTRA.POLAR>
0

>  <SCORE.INTRA.POLAR.0>
0

>  <SCORE.INTRA.REPUL>
0

>  <SCORE.INTRA.REPUL.0>
0

>  <SCORE.INTRA.SOLV>
-1.51046

>  <SCORE.INTRA.SOLV.lig_0>
-72.0615

>  <SCORE.INTRA.VDW>
-0.0264724

>  <SCORE.INTRA.VDW.0>
-1.54792

>  <SCORE.INTRA.norm>
-0.164889

>  <SCORE.RESTR>
0

>  <SCORE.RESTR.CAVITY>
0

>  <SCORE.RESTR.norm>
0

>  <SCORE.SYSTEM>
0

>  <SCORE.SYSTEM.CONST>
0

>  <SCORE.SYSTEM.DIHEDRAL>
0

>  <SCORE.SYSTEM.SOLV>
0

>  <SCORE.SYSTEM.norm>
0

>  <SCORE.heavy>
22

>  <SCORE.norm>
-0.263772

>  <RMSD>
35.685

$$$$
lig.pdb
 OpenBabel11021811523D
libRbt.so/2013.1/901 2013/11/27
 22 23  0  0  0  0  0  0  0  0999 V2000
    1.9490  -19.3201   -4.4460 C   0  0  1  0  0  0  0  0  0  0  0  0
    4.4419  -19.1607   -4.3522 C   0  0  1  0  0  0  0  0  0  0  0  0
    4.7516  -20.6373   -3.7098 C   0  0  1  0  0  0  0  0  0  0  0  0
    6.2160  -20.5774   -3.0410 C   0  0  2  0  0  0  0  0  0  0  0  0
    0.6636  -19.2055   -5.3834 C   0  0  1  0  0  0  0  0  0  0  0  0
    0.4007  -17.7008   -5.7811 C   0  0  2  0  0  0  0  0  0  0  0  0
    0.1153  -16.8652   -4.4385 C   0  0  1  0  0  0  0  0  0  0  0  0
    1.4200  -16.8891   -3.4783 C   0  0  1  0  0  0  0  0  0  0  0  0
    1.2385  -16.0937   -2.1558 C   0  0  0  0  0  0  0  0  0  0  0  0
    7.2740  -20.2895   -4.2157 C   0  0  1  0  0  0  0  0  0  0  0  0
    6.9296  -18.8403   -4.8318 C   0  0  0  0  0  0  0  0  0  0  0  0
    5.4711  -18.8318   -5.4601 C   0  0  2  0  0  0  0  0  0  0  0  0
   -0.1610  -15.4534   -4.7248 F   0  0  0  0  0  0  0  0  0  0  0  0
    0.9524  -20.1049   -6.5948 N   0  0  0  0  0  0  0  0  0  0  0  0
    1.0147  -14.7057   -2.3331 N   0  0  0  0  0  0  0  0  0  0  0  0
    8.6613  -20.2076   -3.6589 N   0  0  0  0  0  0  0  0  0  0  0  0
    5.1403  -17.5196   -6.0076 N   0  0  0  0  0  0  0  0  0  0  0  0
    3.1880  -19.1032   -4.9940 O   0  0  0  0  0  0  0  0  0  0  0  0
    3.7384  -20.9013   -2.6421 O   0  0  0  0  0  0  0  0  0  0  0  0
    6.4868  -21.8246   -2.4964 O   0  0  0  0  0  0  0  0  0  0  0  0
   -0.5575  -17.6751   -6.4642 O   0  0  0  0  0  0  0  0  0  0  0  0
    1.7471  -18.4031   -3.1969 O   0  0  0  0  0  0  0  0  0  0  0  0
  1  5  1  0  0  0  0
  1 18  1  6  0  0  0
  2 18  1  6  0  0  0
  2  3  1  0  0  0  0
  2 12  1  0  0  0  0
  3 19  1  1  0  0  0
  3  4  1  0  0  0  0
  4 20  1  6  0  0  0
  4 10  1  0  0  0  0
  5  6  1  0  0  0  0
  5 14  1  6  0  0  0
  6 21  1  6  0  0  0
  7 13  1  6  0  0  0
  7  6  1  0  0  0  0
  8  9  1  1  0  0  0
  8  7  1  0  0  0  0
 10 16  1  1  0  0  0
 11 10  1  0  0  0  0
 12 17  1  1  0  0  0
 12 11  1  0  0  0  0
 15  9  1  0  0  0  0
 22  8  1  0  0  0  0
 22  1  1  0  0  0  0
M  END
>  <CHROM.1>
-179.63905438,60.03251278,-62.69550855,3.16594400,-18.61960898,-4.28304731
2.83784300,-0.42976749,0.70279780

>  <Name>
lig.pdb

>  <RI>
0

>  <Rbt.Current_Directory>
/home/itssahil/PROJECTS/Mol_Feturizer/New_Systems/rnas/5bxk

>  <Rbt.Executable>
rbdock ($Id: //depot/dev/client3/rdock/2013.1/src/exe/rbdock.cxx#4 $)

>  <Rbt.Library>
libRbt.so (2013.1, Build901 2013/11/27)

>  <Rbt.Parameter_File>
/export/apps/rDock/src/rDock_2013.1_src/data/scripts/dock_solv.prm

>  <Rbt.Receptor>
prm/blind_docking_60.prm

>  <SCORE>
-5.24602

>  <SCORE.INTER>
-1.40262

>  <SCORE.INTER.CONST>
1

>  <SCORE.INTER.POLAR>
0

>  <SCORE.INTER.ROT>
3

>  <SCORE.INTER.SOLV>
8.95969

>  <SCORE.INTER.VDW>
-9.52164

>  <SCORE.INTER.norm>
-0.0637554

>  <SCORE.INTRA>
-3.8434

>  <SCORE.INTRA.DIHEDRAL>
-7.01871

>  <SCORE.INTRA.DIHEDRAL.0>
7.18044

>  <SCORE.INTRA.POLAR>
0

>  <SCORE.INTRA.POLAR.0>
0

>  <SCORE.INTRA.REPUL>
0

>  <SCORE.INTRA.REPUL.0>
0

>  <SCORE.INTRA.SOLV>
-0.898572

>  <SCORE.INTRA.SOLV.lig_0>
-72.0615

>  <SCORE.INTRA.VDW>
0.11524

>  <SCORE.INTRA.VDW.0>
-1.54792

>  <SCORE.INTRA.norm>
-0.1747

>  <SCORE.RESTR>
0

>  <SCORE.RESTR.CAVITY>
0

>  <SCORE.RESTR.norm>
0

>  <SCORE.SYSTEM>
0

>  <SCORE.SYSTEM.CONST>
0

>  <SCORE.SYSTEM.DIHEDRAL>
0

>  <SCORE.SYSTEM.SOLV>
0

>  <SCORE.SYSTEM.norm>
0

>  <SCORE.heavy>
22

>  <SCORE.norm>
-0.238456

>  <RMSD>
36.037

$$$$
lig.pdb
 OpenBabel11021811523D
libRbt.so/2013.1/901 2013/11/27
 22 23  0  0  0  0  0  0  0  0999 V2000
    6.6281  -18.4357   -5.1112 C   0  0  1  0  0  0  0  0  0  0  0  0
    4.2859  -18.0860   -5.9113 C   0  0  1  0  0  0  0  0  0  0  0  0
    4.5598  -18.4357   -7.4899 C   0  0  1  0  0  0  0  0  0  0  0  0
    3.3551  -17.7930   -8.3447 C   0  0  2  0  0  0  0  0  0  0  0  0
    7.5509  -19.1896   -4.0509 C   0  0  1  0  0  0  0  0  0  0  0  0
    7.3577  -18.5726   -2.6110 C   0  0  2  0  0  0  0  0  0  0  0  0
    7.8076  -17.0306   -2.6568 C   0  0  1  0  0  0  0  0  0  0  0  0
    6.8530  -16.2005   -3.6690 C   0  0  1  0  0  0  0  0  0  0  0  0
    7.2089  -14.6913   -3.7689 C   0  0  0  0  0  0  0  0  0  0  0  0
    1.9947  -18.5119   -7.8818 C   0  0  1  0  0  0  0  0  0  0  0  0
    1.7671  -18.1592   -6.3254 C   0  0  0  0  0  0  0  0  0  0  0  0
    2.9583  -18.7284   -5.4428 C   0  0  2  0  0  0  0  0  0  0  0  0
    7.6777  -16.3868   -1.3453 F   0  0  0  0  0  0  0  0  0  0  0  0
    7.1477  -20.6698   -4.1289 N   0  0  0  0  0  0  0  0  0  0  0  0
    6.3343  -13.9363   -4.5893 N   0  0  0  0  0  0  0  0  0  0  0  0
    0.8269  -17.9496   -8.6311 N   0  0  0  0  0  0  0  0  0  0  0  0
    2.7725  -18.4015   -4.0322 N   0  0  0  0  0  0  0  0  0  0  0  0
    5.2704  -18.6269   -5.0596 O   0  0  0  0  0  0  0  0  0  0  0  0
    5.8449  -17.7861   -7.8935 O   0  0  0  0  0  0  0  0  0  0  0  0
    3.5784  -18.0863   -9.6825 O   0  0  0  0  0  0  0  0  0  0  0  0
    8.0630  -19.1600   -1.8742 O   0  0  0  0  0  0  0  0  0  0  0  0
    6.9564  -16.9084   -5.0714 O   0  0  0  0  0  0  0  0  0  0  0  0
  1  5  1  0  0  0  0
  1 18  1  1  0  0  0
  2 18  1  1  0  0  0
  2  3  1  0  0  0  0
  2 12  1  0  0  0  0
  3 19  1  6  0  0  0
  3  4  1  0  0  0  0
  4 20  1  6  0  0  0
  4 10  1  0  0  0  0
  5  6  1  0  0  0  0
  5 14  1  1  0  0  0
  6 21  1  1  0  0  0
  7 13  1  1  0  0  0
  7  6  1  0  0  0  0
  8  9  1  6  0  0  0
  8  7  1  0  0  0  0
 10 16  1  6  0  0  0
 11 10  1  0  0  0  0
 12 17  1  1  0  0  0
 12 11  1  0  0  0  0
 15  9  1  0  0  0  0
 22  8  1  0  0  0  0
 22  1  1  0  0  0  0
M  END
>  <CHROM.1>
-178.48706391,56.00524812,-176.46765744,5.36602049,-17.78441277,-5.21005646
0.03924371,0.81991906,2.92329695

>  <Name>
lig.pdb

>  <RI>
0

>  <Rbt.Current_Directory>
/home/itssahil/PROJECTS/Mol_Feturizer/New_Systems/rnas/5bxk

>  <Rbt.Executable>
rbdock ($Id: //depot/dev/client3/rdock/2013.1/src/exe/rbdock.cxx#4 $)

>  <Rbt.Library>
libRbt.so (2013.1, Build901 2013/11/27)

>  <Rbt.Parameter_File>
/export/apps/rDock/src/rDock_2013.1_src/data/scripts/dock_solv.prm

>  <Rbt.Receptor>
prm/blind_docking_60.prm

>  <SCORE>
-8.63376

>  <SCORE.INTER>
-4.35223

>  <SCORE.INTER.CONST>
1

>  <SCORE.INTER.POLAR>
0

>  <SCORE.INTER.ROT>
3

>  <SCORE.INTER.SOLV>
20.5535

>  <SCORE.INTER.VDW>
-15.3527

>  <SCORE.INTER.norm>
-0.197829

>  <SCORE.INTRA>
-4.28153

>  <SCORE.INTRA.DIHEDRAL>
-6.90995

>  <SCORE.INTRA.DIHEDRAL.0>
7.18044

>  <SCORE.INTRA.POLAR>
0

>  <SCORE.INTRA.POLAR.0>
0

>  <SCORE.INTRA.REPUL>
0

>  <SCORE.INTRA.REPUL.0>
0

>  <SCORE.INTRA.SOLV>
-1.86854

>  <SCORE.INTRA.SOLV.lig_0>
-72.0615

>  <SCORE.INTRA.VDW>
0.107716

>  <SCORE.INTRA.VDW.0>
-1.54792

>  <SCORE.INTRA.norm>
-0.194615

>  <SCORE.RESTR>
0

>  <SCORE.RESTR.CAVITY>
0

>  <SCORE.RESTR.norm>
0

>  <SCORE.SYSTEM>
0

>  <SCORE.SYSTEM.CONST>
0

>  <SCORE.SYSTEM.DIHEDRAL>
0

>  <SCORE.SYSTEM.SOLV>
0

>  <SCORE.SYSTEM.norm>
0

>  <SCORE.heavy>
22

>  <SCORE.norm>
-0.392444

>  <RMSD>
36.097

$$$$
lig.pdb
 OpenBabel11021811523D
libRbt.so/2013.1/901 2013/11/27
 22 23  0  0  0  0  0  0  0  0999 V2000
    2.7138  -14.5262   -4.7109 C   0  0  1  0  0  0  0  0  0  0  0  0
    2.3618  -16.9700   -4.3205 C   0  0  1  0  0  0  0  0  0  0  0  0
    3.8503  -17.5736   -4.6511 C   0  0  1  0  0  0  0  0  0  0  0  0
    3.6680  -19.1255   -5.0425 C   0  0  2  0  0  0  0  0  0  0  0  0
    2.9939  -13.1284   -3.9957 C   0  0  1  0  0  0  0  0  0  0  0  0
    1.6568  -12.5285   -3.4095 C   0  0  2  0  0  0  0  0  0  0  0  0
    0.6411  -12.2709   -4.6279 C   0  0  1  0  0  0  0  0  0  0  0  0
    0.2657  -13.6731   -5.3475 C   0  0  1  0  0  0  0  0  0  0  0  0
   -0.7245  -13.5216   -6.5354 C   0  0  0  0  0  0  0  0  0  0  0  0
    3.0740  -19.8835   -3.7562 C   0  0  1  0  0  0  0  0  0  0  0  0
    1.6210  -19.2548   -3.4530 C   0  0  0  0  0  0  0  0  0  0  0  0
    1.7408  -17.7087   -3.1108 C   0  0  2  0  0  0  0  0  0  0  0  0
   -0.6251  -11.6911   -4.1673 F   0  0  0  0  0  0  0  0  0  0  0  0
    4.0459  -13.4193   -2.9147 N   0  0  0  0  0  0  0  0  0  0  0  0
   -2.0003  -13.0215   -6.1744 N   0  0  0  0  0  0  0  0  0  0  0  0
    2.8663  -21.3354   -4.0565 N   0  0  0  0  0  0  0  0  0  0  0  0
    0.4292  -17.1230   -2.8498 N   0  0  0  0  0  0  0  0  0  0  0  0
    2.4019  -15.6145   -3.9357 O   0  0  0  0  0  0  0  0  0  0  0  0
    4.4001  -16.8348   -5.8294 O   0  0  0  0  0  0  0  0  0  0  0  0
    4.9241  -19.6447   -5.3220 O   0  0  0  0  0  0  0  0  0  0  0  0
    1.9204  -11.5002   -2.9013 O   0  0  0  0  0  0  0  0  0  0  0  0
    1.6232  -14.3214   -5.8112 O   0  0  0  0  0  0  0  0  0  0  0  0
  1  5  1  0  0  0  0
  1 18  1  1  0  0  0
  2 18  1  1  0  0  0
  2  3  1  0  0  0  0
  2 12  1  0  0  0  0
  3 19  1  6  0  0  0
  3  4  1  0  0  0  0
  4 20  1  1  0  0  0
  4 10  1  0  0  0  0
  5  6  1  0  0  0  0
  5 14  1  1  0  0  0
  6 21  1  6  0  0  0
  7 13  1  1  0  0  0
  7  6  1  0  0  0  0
  8  9  1  6  0  0  0
  8  7  1  0  0  0  0
 10 16  1  6  0  0  0
 11 10  1  0  0  0  0
 12 17  1  6  0  0  0
 12 11  1  0  0  0  0
 15  9  1  0  0  0  0
 22  8  1  0  0  0  0
 22  1  1  0  0  0  0
M  END
>  <CHROM.1>
-167.22180930,68.76092806,-63.14614651,1.97537763,-15.59865448,-4.41657315
-1.98241073,0.25999350,-3.05865870

>  <Name>
lig.pdb

>  <RI>
0

>  <Rbt.Current_Directory>
/home/itssahil/PROJECTS/Mol_Feturizer/New_Systems/rnas/5bxk

>  <Rbt.Executable>
rbdock ($Id: //depot/dev/client3/rdock/2013.1/src/exe/rbdock.cxx#4 $)

>  <Rbt.Library>
libRbt.so (2013.1, Build901 2013/11/27)

>  <Rbt.Parameter_File>
/export/apps/rDock/src/rDock_2013.1_src/data/scripts/dock_solv.prm

>  <Rbt.Receptor>
prm/blind_docking_60.prm

>  <SCORE>
-6.68561

>  <SCORE.INTER>
-3.47743

>  <SCORE.INTER.CONST>
1

>  <SCORE.INTER.POLAR>
0

>  <SCORE.INTER.ROT>
3

>  <SCORE.INTER.SOLV>
16.7704

>  <SCORE.INTER.VDW>
-13.5084

>  <SCORE.INTER.norm>
-0.158065

>  <SCORE.INTRA>
-3.20818

>  <SCORE.INTRA.DIHEDRAL>
-5.8906

>  <SCORE.INTRA.DIHEDRAL.0>
7.18044

>  <SCORE.INTRA.POLAR>
0

>  <SCORE.INTRA.POLAR.0>
0

>  <SCORE.INTRA.REPUL>
0

>  <SCORE.INTRA.REPUL.0>
0

>  <SCORE.INTRA.SOLV>
-0.650195

>  <SCORE.INTRA.SOLV.lig_0>
-72.0615

>  <SCORE.INTRA.VDW>
0.0622139

>  <SCORE.INTRA.VDW.0>
-1.54792

>  <SCORE.INTRA.norm>
-0.145827

>  <SCORE.RESTR>
0

>  <SCORE.RESTR.CAVITY>
0

>  <SCORE.RESTR.norm>
0

>  <SCORE.SYSTEM>
0

>  <SCORE.SYSTEM.CONST>
0

>  <SCORE.SYSTEM.DIHEDRAL>
0

>  <SCORE.SYSTEM.SOLV>
0

>  <SCORE.SYSTEM.norm>
0

>  <SCORE.heavy>
22

>  <SCORE.norm>
-0.303891

>  <RMSD>
36.108

$$$$
lig.pdb
 OpenBabel11021811523D
libRbt.so/2013.1/901 2013/11/27
 22 23  0  0  0  0  0  0  0  0999 V2000
    6.2002  -19.6481   -4.6364 C   0  0  1  0  0  0  0  0  0  0  0  0
    4.2705  -20.7190   -3.4626 C   0  0  1  0  0  0  0  0  0  0  0  0
    3.0244  -20.0101   -4.2587 C   0  0  1  0  0  0  0  0  0  0  0  0
    1.7515  -20.9899   -4.1372 C   0  0  2  0  0  0  0  0  0  0  0  0
    7.5682  -18.8504   -4.4454 C   0  0  1  0  0  0  0  0  0  0  0  0
    7.2836  -17.3565   -4.0226 C   0  0  2  0  0  0  0  0  0  0  0  0
    6.4526  -16.6469   -5.2008 C   0  0  1  0  0  0  0  0  0  0  0  0
    5.0181  -17.3761   -5.3894 C   0  0  1  0  0  0  0  0  0  0  0  0
    4.1380  -16.7471   -6.5048 C   0  0  0  0  0  0  0  0  0  0  0  0
    2.1260  -22.3655   -4.8783 C   0  0  1  0  0  0  0  0  0  0  0  0
    3.3612  -23.0243   -4.0791 C   0  0  0  0  0  0  0  0  0  0  0  0
    4.6300  -22.0705   -4.1254 C   0  0  2  0  0  0  0  0  0  0  0  0
    6.1644  -15.2420   -4.8933 F   0  0  0  0  0  0  0  0  0  0  0  0
    8.3603  -19.6332   -3.3873 N   0  0  0  0  0  0  0  0  0  0  0  0
    2.8877  -17.3865   -6.6947 N   0  0  0  0  0  0  0  0  0  0  0  0
    0.9857  -23.3318   -4.7910 N   0  0  0  0  0  0  0  0  0  0  0  0
    5.7515  -22.6484   -3.3910 N   0  0  0  0  0  0  0  0  0  0  0  0
    5.4552  -19.9577   -3.5266 O   0  0  0  0  0  0  0  0  0  0  0  0
    2.7117  -18.7173   -3.5751 O   0  0  0  0  0  0  0  0  0  0  0  0
    0.6924  -20.3978   -4.8104 O   0  0  0  0  0  0  0  0  0  0  0  0
    8.3224  -16.8164   -3.9020 O   0  0  0  0  0  0  0  0  0  0  0  0
    5.3170  -18.8939   -5.6818 O   0  0  0  0  0  0  0  0  0  0  0  0
  1  5  1  0  0  0  0
  1 18  1  1  0  0  0
  2 18  1  6  0  0  0
  2  3  1  0  0  0  0
  2 12  1  0  0  0  0
  3 19  1  1  0  0  0
  3  4  1  0  0  0  0
  4 20  1  6  0  0  0
  4 10  1  0  0  0  0
  5  6  1  0  0  0  0
  5 14  1  1  0  0  0
  6 21  1  6  0  0  0
  7 13  1  1  0  0  0
  7  6  1  0  0  0  0
  8  9  1  6  0  0  0
  8  7  1  0  0  0  0
 10 16  1  1  0  0  0
 11 10  1  0  0  0  0
 12 17  1  1  0  0  0
 12 11  1  0  0  0  0
 15  9  1  0  0  0  0
 22  8  1  0  0  0  0
 22  1  1  0  0  0  0
M  END
>  <CHROM.1>
-175.80063122,-64.53727132,179.13345930,4.67119913,-19.40405236,-4.53688059
-0.78977532,0.26232169,2.83022631

>  <Name>
lig.pdb

>  <RI>
0

>  <Rbt.Current_Directory>
/home/itssahil/PROJECTS/Mol_Feturizer/New_Systems/rnas/5bxk

>  <Rbt.Executable>
rbdock ($Id: //depot/dev/client3/rdock/2013.1/src/exe/rbdock.cxx#4 $)

>  <Rbt.Library>
libRbt.so (2013.1, Build901 2013/11/27)

>  <Rbt.Parameter_File>
/export/apps/rDock/src/rDock_2013.1_src/data/scripts/dock_solv.prm

>  <Rbt.Receptor>
prm/blind_docking_40.prm

>  <SCORE>
-7.27653

>  <SCORE.INTER>
-4.36167

>  <SCORE.INTER.CONST>
1

>  <SCORE.INTER.POLAR>
0

>  <SCORE.INTER.ROT>
3

>  <SCORE.INTER.SOLV>
9.97492

>  <SCORE.INTER.VDW>
-11.8328

>  <SCORE.INTER.norm>
-0.198258

>  <SCORE.INTRA>
-2.91486

>  <SCORE.INTRA.DIHEDRAL>
-6.85793

>  <SCORE.INTRA.DIHEDRAL.0>
7.18044

>  <SCORE.INTRA.POLAR>
0

>  <SCORE.INTRA.POLAR.0>
0

>  <SCORE.INTRA.REPUL>
0

>  <SCORE.INTRA.REPUL.0>
0

>  <SCORE.INTRA.SOLV>
1.36095

>  <SCORE.INTRA.SOLV.lig_0>
-72.0615

>  <SCORE.INTRA.VDW>
-0.166367

>  <SCORE.INTRA.VDW.0>
-1.54792

>  <SCORE.INTRA.norm>
-0.132494

>  <SCORE.RESTR>
0

>  <SCORE.RESTR.CAVITY>
0

>  <SCORE.RESTR.norm>
0

>  <SCORE.SYSTEM>
0

>  <SCORE.SYSTEM.CONST>
0

>  <SCORE.SYSTEM.DIHEDRAL>
0

>  <SCORE.SYSTEM.SOLV>
0

>  <SCORE.SYSTEM.norm>
0

>  <SCORE.heavy>
22

>  <SCORE.norm>
-0.330751

>  <RMSD>
36.111

$$$$
lig.pdb
 OpenBabel11021811523D
libRbt.so/2013.1/901 2013/11/27
 22 23  0  0  0  0  0  0  0  0999 V2000
    3.7003  -17.9430   -6.6721 C   0  0  1  0  0  0  0  0  0  0  0  0
    5.0053  -16.3707   -5.2321 C   0  0  1  0  0  0  0  0  0  0  0  0
    6.4461  -17.1479   -5.1348 C   0  0  1  0  0  0  0  0  0  0  0  0
    7.1892  -16.6262   -3.8041 C   0  0  2  0  0  0  0  0  0  0  0  0
    3.1703  -18.2076   -8.1530 C   0  0  1  0  0  0  0  0  0  0  0  0
    1.8787  -17.3472   -8.4409 C   0  0  2  0  0  0  0  0  0  0  0  0
    0.7302  -17.7988   -7.4117 C   0  0  1  0  0  0  0  0  0  0  0  0
    1.1894  -17.4848   -5.8901 C   0  0  1  0  0  0  0  0  0  0  0  0
    0.1317  -17.8803   -4.8227 C   0  0  0  0  0  0  0  0  0  0  0  0
    7.4589  -15.0524   -3.9847 C   0  0  1  0  0  0  0  0  0  0  0  0
    6.0241  -14.3255   -4.0919 C   0  0  0  0  0  0  0  0  0  0  0  0
    5.2274  -14.8449   -5.3636 C   0  0  2  0  0  0  0  0  0  0  0  0
   -0.5166  -17.0572   -7.6282 F   0  0  0  0  0  0  0  0  0  0  0  0
    4.3432  -17.8590   -9.0816 N   0  0  0  0  0  0  0  0  0  0  0  0
    0.4818  -17.5327   -3.4943 N   0  0  0  0  0  0  0  0  0  0  0  0
    8.1388  -14.4976   -2.7717 N   0  0  0  0  0  0  0  0  0  0  0  0
    3.9186  -14.2058   -5.4634 N   0  0  0  0  0  0  0  0  0  0  0  0
    4.2740  -16.7308   -6.3823 O   0  0  0  0  0  0  0  0  0  0  0  0
    6.1758  -18.6125   -5.0001 O   0  0  0  0  0  0  0  0  0  0  0  0
    8.4110  -17.2779   -3.7153 O   0  0  0  0  0  0  0  0  0  0  0  0
    1.5297  -17.5853   -9.5394 O   0  0  0  0  0  0  0  0  0  0  0  0
    2.5481  -18.2463   -5.6611 O   0  0  0  0  0  0  0  0  0  0  0  0
  1  5  1  0  0  0  0
  1 18  1  6  0  0  0
  2 18  1  6  0  0  0
  2  3  1  0  0  0  0
  2 12  1  0  0  0  0
  3 19  1  1  0  0  0
  3  4  1  0  0  0  0
  4 20  1  6  0  0  0
  4 10  1  0  0  0  0
  5  6  1  0  0  0  0
  5 14  1  6  0  0  0
  6 21  1  6  0  0  0
  7 13  1  6  0  0  0
  7  6  1  0  0  0  0
  8  9  1  1  0  0  0
  8  7  1  0  0  0  0
 10 16  1  1  0  0  0
 11 10  1  0  0  0  0
 12 17  1  1  0  0  0
 12 11  1  0  0  0  0
 15  9  1  0  0  0  0
 22  8  1  0  0  0  0
 22  1  1  0  0  0  0
M  END
>  <CHROM.1>
-168.04601225,67.87559819,-176.11188537,3.91599898,-16.87599521,-5.83685872
-2.59618648,0.07313871,1.20297361

>  <Name>
lig.pdb

>  <RI>
0

>  <Rbt.Current_Directory>
/home/itssahil/PROJECTS/Mol_Feturizer/New_Systems/rnas/5bxk

>  <Rbt.Executable>
rbdock ($Id: //depot/dev/client3/rdock/2013.1/src/exe/rbdock.cxx#4 $)

>  <Rbt.Library>
libRbt.so (2013.1, Build901 2013/11/27)

>  <Rbt.Parameter_File>
/export/apps/rDock/src/rDock_2013.1_src/data/scripts/dock_solv.prm

>  <Rbt.Receptor>
prm/blind_docking_60.prm

>  <SCORE>
-7.03319

>  <SCORE.INTER>
-3.24152

>  <SCORE.INTER.CONST>
1

>  <SCORE.INTER.POLAR>
0

>  <SCORE.INTER.ROT>
3

>  <SCORE.INTER.SOLV>
17.9414

>  <SCORE.INTER.VDW>
-13.7415

>  <SCORE.INTER.norm>
-0.147342

>  <SCORE.INTRA>
-3.79167

>  <SCORE.INTRA.DIHEDRAL>
-6.03098

>  <SCORE.INTRA.DIHEDRAL.0>
7.18044

>  <SCORE.INTRA.POLAR>
0

>  <SCORE.INTRA.POLAR.0>
0

>  <SCORE.INTRA.REPUL>
0

>  <SCORE.INTRA.REPUL.0>
0

>  <SCORE.INTRA.SOLV>
-1.63885

>  <SCORE.INTRA.SOLV.lig_0>
-72.0615

>  <SCORE.INTRA.VDW>
0.0432449

>  <SCORE.INTRA.VDW.0>
-1.54792

>  <SCORE.INTRA.norm>
-0.172349

>  <SCORE.RESTR>
0

>  <SCORE.RESTR.CAVITY>
0

>  <SCORE.RESTR.norm>
0

>  <SCORE.SYSTEM>
0

>  <SCORE.SYSTEM.CONST>
0

>  <SCORE.SYSTEM.DIHEDRAL>
0

>  <SCORE.SYSTEM.SOLV>
0

>  <SCORE.SYSTEM.norm>
0

>  <SCORE.heavy>
22

>  <SCORE.norm>
-0.31969

>  <RMSD>
36.478

$$$$
lig.pdb
 OpenBabel11021811523D
libRbt.so/2013.1/901 2013/11/27
 22 23  0  0  0  0  0  0  0  0999 V2000
    5.6095  -19.8772   -4.8339 C   0  0  1  0  0  0  0  0  0  0  0  0
    3.3857  -20.9880   -4.5705 C   0  0  1  0  0  0  0  0  0  0  0  0
    3.6305  -22.5378   -4.0935 C   0  0  1  0  0  0  0  0  0  0  0  0
    2.3574  -23.3997   -4.5746 C   0  0  2  0  0  0  0  0  0  0  0  0
    6.7354  -19.0238   -4.0935 C   0  0  1  0  0  0  0  0  0  0  0  0
    6.2941  -17.5133   -3.9706 C   0  0  2  0  0  0  0  0  0  0  0  0
    6.1100  -16.9180   -5.4519 C   0  0  1  0  0  0  0  0  0  0  0  0
    4.9244  -17.7050   -6.2263 C   0  0  1  0  0  0  0  0  0  0  0  0
    4.6672  -17.1871   -7.6685 C   0  0  0  0  0  0  0  0  0  0  0  0
    1.0649  -22.8205   -3.8157 C   0  0  1  0  0  0  0  0  0  0  0  0
    0.8654  -21.2950   -4.2967 C   0  0  0  0  0  0  0  0  0  0  0  0
    2.1209  -20.4115   -3.8903 C   0  0  2  0  0  0  0  0  0  0  0  0
    5.7186  -15.5046   -5.4253 F   0  0  0  0  0  0  0  0  0  0  0  0
    6.9406  -19.7020   -2.7306 N   0  0  0  0  0  0  0  0  0  0  0  0
    3.5839  -17.8152   -8.3319 N   0  0  0  0  0  0  0  0  0  0  0  0
   -0.1625  -23.5716   -4.2292 N   0  0  0  0  0  0  0  0  0  0  0  0
    1.9601  -19.0303   -4.3346 N   0  0  0  0  0  0  0  0  0  0  0  0
    4.4323  -20.1299   -4.1760 O   0  0  0  0  0  0  0  0  0  0  0  0
    4.8545  -23.0487   -4.7842 O   0  0  0  0  0  0  0  0  0  0  0  0
    2.5558  -24.7130   -4.1729 O   0  0  0  0  0  0  0  0  0  0  0  0
    7.1602  -16.9324   -3.4249 O   0  0  0  0  0  0  0  0  0  0  0  0
    5.3176  -19.2294   -6.2257 O   0  0  0  0  0  0  0  0  0  0  0  0
  1  5  1  0  0  0  0
  1 18  1  1  0  0  0
  2 18  1  1  0  0  0
  2  3  1  0  0  0  0
  2 12  1  0  0  0  0
  3 19  1  6  0  0  0
  3  4  1  0  0  0  0
  4 20  1  1  0  0  0
  4 10  1  0  0  0  0
  5  6  1  0  0  0  0
  5 14  1  1  0  0  0
  6 21  1  6  0  0  0
  7 13  1  1  0  0  0
  7  6  1  0  0  0  0
  8  9  1  6  0  0  0
  8  7  1  0  0  0  0
 10 16  1  6  0  0  0
 11 10  1  0  0  0  0
 12 17  1  6  0  0  0
 12 11  1  0  0  0  0
 15  9  1  0  0  0  0
 22  8  1  0  0  0  0
 22  1  1  0  0  0  0
M  END
>  <CHROM.1>
-171.47558905,86.05839905,-176.64847379,4.14274270,-19.92142748,-4.79773820
-0.89065684,0.46775743,2.61174146

>  <Name>
lig.pdb

>  <RI>
0

>  <Rbt.Current_Directory>
/home/itssahil/PROJECTS/Mol_Feturizer/New_Systems/rnas/5bxk

>  <Rbt.Executable>
rbdock ($Id: //depot/dev/client3/rdock/2013.1/src/exe/rbdock.cxx#4 $)

>  <Rbt.Library>
libRbt.so (2013.1, Build901 2013/11/27)

>  <Rbt.Parameter_File>
/export/apps/rDock/src/rDock_2013.1_src/data/scripts/dock_solv.prm

>  <Rbt.Receptor>
prm/blind_docking_100.prm

>  <SCORE>
-5.41063

>  <SCORE.INTER>
-2.81496

>  <SCORE.INTER.CONST>
1

>  <SCORE.INTER.POLAR>
0

>  <SCORE.INTER.ROT>
3

>  <SCORE.INTER.SOLV>
17.3906

>  <SCORE.INTER.VDW>
-13.2735

>  <SCORE.INTER.norm>
-0.127953

>  <SCORE.INTRA>
-2.59567

>  <SCORE.INTRA.DIHEDRAL>
-3.80204

>  <SCORE.INTRA.DIHEDRAL.0>
7.18044

>  <SCORE.INTRA.POLAR>
0

>  <SCORE.INTRA.POLAR.0>
0

>  <SCORE.INTRA.REPUL>
0

>  <SCORE.INTRA.REPUL.0>
0

>  <SCORE.INTRA.SOLV>
-1.06567

>  <SCORE.INTRA.SOLV.lig_0>
-72.0615

>  <SCORE.INTRA.VDW>
-0.161808

>  <SCORE.INTRA.VDW.0>
-1.54792

>  <SCORE.INTRA.norm>
-0.117985

>  <SCORE.RESTR>
0

>  <SCORE.RESTR.CAVITY>
0

>  <SCORE.RESTR.norm>
0

>  <SCORE.SYSTEM>
0

>  <SCORE.SYSTEM.CONST>
0

>  <SCORE.SYSTEM.DIHEDRAL>
0

>  <SCORE.SYSTEM.SOLV>
0

>  <SCORE.SYSTEM.norm>
0

>  <SCORE.heavy>
22

>  <SCORE.norm>
-0.245938

>  <RMSD>
36.746

$$$$
lig.pdb
 OpenBabel11021811523D
libRbt.so/2013.1/901 2013/11/27
 22 23  0  0  0  0  0  0  0  0999 V2000
    5.3610   -1.5587   -6.0978 C   0  0  1  0  0  0  0  0  0  0  0  0
    5.5823    0.9004   -6.4881 C   0  0  1  0  0  0  0  0  0  0  0  0
    4.9883    1.5651   -5.1116 C   0  0  1  0  0  0  0  0  0  0  0  0
    4.4894    3.0546   -5.4689 C   0  0  2  0  0  0  0  0  0  0  0  0
    6.1365   -2.8800   -5.6541 C   0  0  1  0  0  0  0  0  0  0  0  0
    7.0154   -3.4319   -6.8433 C   0  0  2  0  0  0  0  0  0  0  0  0
    6.0379   -3.8121   -8.0608 C   0  0  1  0  0  0  0  0  0  0  0  0
    5.2757   -2.4876   -8.5990 C   0  0  1  0  0  0  0  0  0  0  0  0
    4.3134   -2.7591   -9.7885 C   0  0  0  0  0  0  0  0  0  0  0  0
    5.7745    3.8965   -5.9399 C   0  0  1  0  0  0  0  0  0  0  0  0
    6.3386    3.2064   -7.2830 C   0  0  0  0  0  0  0  0  0  0  0  0
    6.7976    1.7137   -6.9947 C   0  0  2  0  0  0  0  0  0  0  0  0
    6.7789   -4.3554   -9.2041 F   0  0  0  0  0  0  0  0  0  0  0  0
    6.9697   -2.4794   -4.4273 N   0  0  0  0  0  0  0  0  0  0  0  0
    4.9480   -3.2583  -10.9530 N   0  0  0  0  0  0  0  0  0  0  0  0
    5.3780    5.2941   -6.3018 N   0  0  0  0  0  0  0  0  0  0  0  0
    7.2959    1.0714   -8.2073 N   0  0  0  0  0  0  0  0  0  0  0  0
    6.0776   -0.4042   -6.2878 O   0  0  0  0  0  0  0  0  0  0  0  0
    3.8144    0.7502   -4.6711 O   0  0  0  0  0  0  0  0  0  0  0  0
    3.9868    3.6253   -4.3082 O   0  0  0  0  0  0  0  0  0  0  0  0
    7.5576   -4.4052   -6.4637 O   0  0  0  0  0  0  0  0  0  0  0  0
    4.5081   -1.8757   -7.3683 O   0  0  0  0  0  0  0  0  0  0  0  0
  1  5  1  0  0  0  0
  1 18  1  6  0  0  0
  2 18  1  1  0  0  0
  2  3  1  0  0  0  0
  2 12  1  0  0  0  0
  3 19  1  6  0  0  0
  3  4  1  0  0  0  0
  4 20  1  1  0  0  0
  4 10  1  0  0  0  0
  5  6  1  0  0  0  0
  5 14  1  1  0  0  0
  6 21  1  1  0  0  0
  7 13  1  6  0  0  0
  7  6  1  0  0  0  0
  8  9  1  6  0  0  0
  8  7  1  0  0  0  0
 10 16  1  6  0  0  0
 11 10  1  0  0  0  0
 12 17  1  6  0  0  0
 12 11  1  0  0  0  0
 15  9  1  0  0  0  0
 22  8  1  0  0  0  0
 22  1  1  0  0  0  0
M  END
>  <CHROM.1>
-170.07914611,74.07347619,-61.93002638,5.70059448,-0.46032605,-6.85722401
-0.73798206,-1.39468067,1.17338539

>  <Name>
lig.pdb

>  <RI>
0

>  <Rbt.Current_Directory>
/home/itssahil/PROJECTS/Mol_Feturizer/New_Systems/rnas/5bxk

>  <Rbt.Executable>
rbdock ($Id: //depot/dev/client3/rdock/2013.1/src/exe/rbdock.cxx#4 $)

>  <Rbt.Library>
libRbt.so (2013.1, Build901 2013/11/27)

>  <Rbt.Parameter_File>
/export/apps/rDock/src/rDock_2013.1_src/data/scripts/dock_solv.prm

>  <Rbt.Receptor>
prm/blind_docking_20.prm

>  <SCORE>
-4.91001

>  <SCORE.INTER>
-1.83875

>  <SCORE.INTER.CONST>
1

>  <SCORE.INTER.POLAR>
0

>  <SCORE.INTER.ROT>
3

>  <SCORE.INTER.SOLV>
11.3399

>  <SCORE.INTER.VDW>
-10.6058

>  <SCORE.INTER.norm>
-0.0835797

>  <SCORE.INTRA>
-3.07165

>  <SCORE.INTRA.DIHEDRAL>
-5.64085

>  <SCORE.INTRA.DIHEDRAL.0>
7.18044

>  <SCORE.INTRA.POLAR>
0

>  <SCORE.INTRA.POLAR.0>
0

>  <SCORE.INTRA.REPUL>
0

>  <SCORE.INTRA.REPUL.0>
0

>  <SCORE.INTRA.SOLV>
-0.513495

>  <SCORE.INTRA.SOLV.lig_0>
-72.0615

>  <SCORE.INTRA.VDW>
0.0055239

>  <SCORE.INTRA.VDW.0>
-1.54792

>  <SCORE.INTRA.norm>
-0.13962

>  <SCORE.RESTR>
0.000390222

>  <SCORE.RESTR.CAVITY>
0.000390222

>  <SCORE.RESTR.norm>
1.77374e-05

>  <SCORE.SYSTEM>
0

>  <SCORE.SYSTEM.CONST>
0

>  <SCORE.SYSTEM.DIHEDRAL>
0

>  <SCORE.SYSTEM.SOLV>
0

>  <SCORE.SYSTEM.norm>
0

>  <SCORE.heavy>
22

>  <SCORE.norm>
-0.223182

>  <RMSD>
36.843

$$$$
lig.pdb
 OpenBabel11021811523D
libRbt.so/2013.1/901 2013/11/27
 22 23  0  0  0  0  0  0  0  0999 V2000
    4.5070  -16.3721   -4.9008 C   0  0  1  0  0  0  0  0  0  0  0  0
    3.9477  -17.7099   -6.9369 C   0  0  1  0  0  0  0  0  0  0  0  0
    2.3170  -17.7903   -6.7835 C   0  0  1  0  0  0  0  0  0  0  0  0
    1.8124  -19.0629   -7.6325 C   0  0  2  0  0  0  0  0  0  0  0  0
    5.0632  -14.9753   -4.3681 C   0  0  1  0  0  0  0  0  0  0  0  0
    6.6290  -14.8968   -4.5506 C   0  0  2  0  0  0  0  0  0  0  0  0
    7.2995  -16.0668   -3.6767 C   0  0  1  0  0  0  0  0  0  0  0  0
    6.8224  -17.5153   -4.2237 C   0  0  1  0  0  0  0  0  0  0  0  0
    7.4324  -18.7116   -3.4420 C   0  0  0  0  0  0  0  0  0  0  0  0
    2.1765  -18.7925   -9.1741 C   0  0  1  0  0  0  0  0  0  0  0  0
    3.7824  -18.7046   -9.2831 C   0  0  0  0  0  0  0  0  0  0  0  0
    4.3363  -17.4928   -8.4190 C   0  0  2  0  0  0  0  0  0  0  0  0
    8.7628  -16.0495   -3.7758 F   0  0  0  0  0  0  0  0  0  0  0  0
    4.3112  -13.8986   -5.1649 N   0  0  0  0  0  0  0  0  0  0  0  0
    7.1452  -19.9827   -3.9989 N   0  0  0  0  0  0  0  0  0  0  0  0
    1.7450  -19.9484  -10.0221 N   0  0  0  0  0  0  0  0  0  0  0  0
    5.7918  -17.4117   -8.4961 N   0  0  0  0  0  0  0  0  0  0  0  0
    4.5009  -16.6088   -6.2522 O   0  0  0  0  0  0  0  0  0  0  0  0
    1.9964  -18.0094   -5.3393 O   0  0  0  0  0  0  0  0  0  0  0  0
    0.4323  -19.1370   -7.5095 O   0  0  0  0  0  0  0  0  0  0  0  0
    6.9839  -13.8533   -4.1377 O   0  0  0  0  0  0  0  0  0  0  0  0
    5.2495  -17.5286   -4.1571 O   0  0  0  0  0  0  0  0  0  0  0  0
  1  5  1  0  0  0  0
  1 18  1  6  0  0  0
  2 18  1  1  0  0  0
  2  3  1  0  0  0  0
  2 12  1  0  0  0  0
  3 19  1  1  0  0  0
  3  4  1  0  0  0  0
  4 20  1  6  0  0  0
  4 10  1  0  0  0  0
  5  6  1  0  0  0  0
  5 14  1  6  0  0  0
  6 21  1  1  0  0  0
  7 13  1  6  0  0  0
  7  6  1  0  0  0  0
  8  9  1  1  0  0  0
  8  7  1  0  0  0  0
 10 16  1  6  0  0  0
 11 10  1  0  0  0  0
 12 17  1  1  0  0  0
 12 11  1  0  0  0  0
 15  9  1  0  0  0  0
 22  8  1  0  0  0  0
 22  1  1  0  0  0  0
M  END
>  <CHROM.1>
-173.67568665,64.39015775,-173.30344001,4.72795589,-17.27528668,-5.95688178
0.56609588,-0.61237200,0.26582934

>  <Name>
lig.pdb

>  <RI>
0

>  <Rbt.Current_Directory>
/home/itssahil/PROJECTS/Mol_Feturizer/New_Systems/rnas/5bxk

>  <Rbt.Executable>
rbdock ($Id: //depot/dev/client3/rdock/2013.1/src/exe/rbdock.cxx#4 $)

>  <Rbt.Library>
libRbt.so (2013.1, Build901 2013/11/27)

>  <Rbt.Parameter_File>
/export/apps/rDock/src/rDock_2013.1_src/data/scripts/dock_solv.prm

>  <Rbt.Receptor>
prm/blind_docking_60.prm

>  <SCORE>
-7.09781

>  <SCORE.INTER>
-2.96532

>  <SCORE.INTER.CONST>
1

>  <SCORE.INTER.POLAR>
0

>  <SCORE.INTER.ROT>
3

>  <SCORE.INTER.SOLV>
18.6184

>  <SCORE.INTER.VDW>
-13.783

>  <SCORE.INTER.norm>
-0.134787

>  <SCORE.INTRA>
-4.13249

>  <SCORE.INTRA.DIHEDRAL>
-6.60012

>  <SCORE.INTRA.DIHEDRAL.0>
7.18044

>  <SCORE.INTRA.POLAR>
0

>  <SCORE.INTRA.POLAR.0>
0

>  <SCORE.INTRA.REPUL>
0

>  <SCORE.INTRA.REPUL.0>
0

>  <SCORE.INTRA.SOLV>
-1.80605

>  <SCORE.INTRA.SOLV.lig_0>
-72.0615

>  <SCORE.INTRA.VDW>
0.0705948

>  <SCORE.INTRA.VDW.0>
-1.54792

>  <SCORE.INTRA.norm>
-0.18784

>  <SCORE.RESTR>
0

>  <SCORE.RESTR.CAVITY>
0

>  <SCORE.RESTR.norm>
0

>  <SCORE.SYSTEM>
0

>  <SCORE.SYSTEM.CONST>
0

>  <SCORE.SYSTEM.DIHEDRAL>
0

>  <SCORE.SYSTEM.SOLV>
0

>  <SCORE.SYSTEM.norm>
0

>  <SCORE.heavy>
22

>  <SCORE.norm>
-0.322628

>  <RMSD>
36.844

$$$$
lig.pdb
 OpenBabel11021811523D
libRbt.so/2013.1/901 2013/11/27
 22 23  0  0  0  0  0  0  0  0999 V2000
    5.3687   -1.5630   -6.0973 C   0  0  1  0  0  0  0  0  0  0  0  0
    5.5881    0.8904   -6.5228 C   0  0  1  0  0  0  0  0  0  0  0  0
    4.9515    1.5648   -5.1703 C   0  0  1  0  0  0  0  0  0  0  0  0
    4.4550    3.0480   -5.5561 C   0  0  2  0  0  0  0  0  0  0  0  0
    6.1452   -2.8805   -5.6442 C   0  0  1  0  0  0  0  0  0  0  0  0
    7.0244   -3.4404   -6.8294 C   0  0  2  0  0  0  0  0  0  0  0  0
    6.0470   -3.8302   -8.0440 C   0  0  1  0  0  0  0  0  0  0  0  0
    5.2837   -2.5102   -8.5917 C   0  0  1  0  0  0  0  0  0  0  0  0
    4.3215   -2.7910   -9.7790 C   0  0  0  0  0  0  0  0  0  0  0  0
    5.7485    3.8926   -5.9984 C   0  0  1  0  0  0  0  0  0  0  0  0
    6.3544    3.1929   -7.3182 C   0  0  0  0  0  0  0  0  0  0  0  0
    6.8129    1.7056   -7.0024 C   0  0  2  0  0  0  0  0  0  0  0  0
    6.7883   -4.3812   -9.1835 F   0  0  0  0  0  0  0  0  0  0  0  0
    6.9783   -2.4704   -4.4205 N   0  0  0  0  0  0  0  0  0  0  0  0
    4.9606   -3.2661  -10.9512 N   0  0  0  0  0  0  0  0  0  0  0  0
    5.3550    5.2844   -6.3850 N   0  0  0  0  0  0  0  0  0  0  0  0
    7.3490    1.0547   -8.1941 N   0  0  0  0  0  0  0  0  0  0  0  0
    6.0844   -0.4094   -6.2958 O   0  0  0  0  0  0  0  0  0  0  0  0
    3.7699    0.7475   -4.7555 O   0  0  0  0  0  0  0  0  0  0  0  0
    3.9164    3.6269   -4.4158 O   0  0  0  0  0  0  0  0  0  0  0  0
    7.5674   -4.4105   -6.4428 O   0  0  0  0  0  0  0  0  0  0  0  0
    4.5159   -1.8899   -7.3653 O   0  0  0  0  0  0  0  0  0  0  0  0
  1  5  1  0  0  0  0
  1 18  1  6  0  0  0
  2 18  1  1  0  0  0
  2  3  1  0  0  0  0
  2 12  1  0  0  0  0
  3 19  1  6  0  0  0
  3  4  1  0  0  0  0
  4 20  1  1  0  0  0
  4 10  1  0  0  0  0
  5  6  1  0  0  0  0
  5 14  1  1  0  0  0
  6 21  1  1  0  0  0
  7 13  1  6  0  0  0
  7  6  1  0  0  0  0
  8  9  1  6  0  0  0
  8  7  1  0  0  0  0
 10 16  1  6  0  0  0
 11 10  1  0  0  0  0
 12 17  1  6  0  0  0
 12 11  1  0  0  0  0
 15  9  1  0  0  0  0
 22  8  1  0  0  0  0
 22  1  1  0  0  0  0
M  END
>  <CHROM.1>
-170.98079526,73.11761321,-63.45598652,5.69850518,-0.46982009,-6.87712258
-0.73578961,-1.38719630,1.16148602

>  <Name>
lig.pdb

>  <RI>
0

>  <Rbt.Current_Directory>
/home/itssahil/PROJECTS/Mol_Feturizer/New_Systems/rnas/5bxk

>  <Rbt.Executable>
rbdock ($Id: //depot/dev/client3/rdock/2013.1/src/exe/rbdock.cxx#4 $)

>  <Rbt.Library>
libRbt.so (2013.1, Build901 2013/11/27)

>  <Rbt.Parameter_File>
/export/apps/rDock/src/rDock_2013.1_src/data/scripts/dock_solv.prm

>  <Rbt.Receptor>
prm/blind_docking_20.prm

>  <SCORE>
-4.89232

>  <SCORE.INTER>
-1.69959

>  <SCORE.INTER.CONST>
1

>  <SCORE.INTER.POLAR>
0

>  <SCORE.INTER.ROT>
3

>  <SCORE.INTER.SOLV>
11.5663

>  <SCORE.INTER.VDW>
-10.5885

>  <SCORE.INTER.norm>
-0.0772541

>  <SCORE.INTRA>
-3.19273

>  <SCORE.INTRA.DIHEDRAL>
-5.80706

>  <SCORE.INTRA.DIHEDRAL.0>
7.18044

>  <SCORE.INTRA.POLAR>
0

>  <SCORE.INTRA.POLAR.0>
0

>  <SCORE.INTRA.REPUL>
0

>  <SCORE.INTRA.REPUL.0>
0

>  <SCORE.INTRA.SOLV>
-0.583376

>  <SCORE.INTRA.SOLV.lig_0>
-72.0615

>  <SCORE.INTRA.VDW>
0.00249388

>  <SCORE.INTRA.VDW.0>
-1.54792

>  <SCORE.INTRA.norm>
-0.145124

>  <SCORE.RESTR>
0

>  <SCORE.RESTR.CAVITY>
0

>  <SCORE.RESTR.norm>
0

>  <SCORE.SYSTEM>
0

>  <SCORE.SYSTEM.CONST>
0

>  <SCORE.SYSTEM.DIHEDRAL>
0

>  <SCORE.SYSTEM.SOLV>
0

>  <SCORE.SYSTEM.norm>
0

>  <SCORE.heavy>
22

>  <SCORE.norm>
-0.222378

>  <RMSD>
36.861

$$$$
lig.pdb
 OpenBabel11021811523D
libRbt.so/2013.1/901 2013/11/27
 22 23  0  0  0  0  0  0  0  0999 V2000
    5.4235   -1.5802   -6.1467 C   0  0  1  0  0  0  0  0  0  0  0  0
    5.6388    0.8821   -6.5197 C   0  0  1  0  0  0  0  0  0  0  0  0
    5.0219    1.5498   -5.1548 C   0  0  1  0  0  0  0  0  0  0  0  0
    4.5214    3.0354   -5.5255 C   0  0  2  0  0  0  0  0  0  0  0  0
    6.1945   -2.8987   -5.6870 C   0  0  1  0  0  0  0  0  0  0  0  0
    7.1148   -3.4364   -6.8511 C   0  0  2  0  0  0  0  0  0  0  0  0
    6.1792   -3.8158   -8.1013 C   0  0  1  0  0  0  0  0  0  0  0  0
    5.4244   -2.4935   -8.6552 C   0  0  1  0  0  0  0  0  0  0  0  0
    4.5024   -2.7643   -9.8762 C   0  0  0  0  0  0  0  0  0  0  0  0
    5.8093    3.8813   -5.9814 C   0  0  1  0  0  0  0  0  0  0  0  0
    6.3960    3.1882   -7.3133 C   0  0  0  0  0  0  0  0  0  0  0  0
    6.8575    1.6989   -7.0120 C   0  0  2  0  0  0  0  0  0  0  0  0
    6.9600   -4.3463   -9.2240 F   0  0  0  0  0  0  0  0  0  0  0  0
    6.9855   -2.5000   -4.4319 N   0  0  0  0  0  0  0  0  0  0  0  0
    3.9823   -1.5965  -10.4877 N   0  0  0  0  0  0  0  0  0  0  0  0
    5.4116    5.2755   -6.3549 N   0  0  0  0  0  0  0  0  0  0  0  0
    7.3763    1.0540   -8.2146 N   0  0  0  0  0  0  0  0  0  0  0  0
    6.1371   -0.4193   -6.3067 O   0  0  0  0  0  0  0  0  0  0  0  0
    3.8455    0.7312   -4.7279 O   0  0  0  0  0  0  0  0  0  0  0  0
    3.9993    3.6085   -4.3747 O   0  0  0  0  0  0  0  0  0  0  0  0
    7.6519   -4.4082   -6.4606 O   0  0  0  0  0  0  0  0  0  0  0  0
    4.6137   -1.8952   -7.4455 O   0  0  0  0  0  0  0  0  0  0  0  0
  1  5  1  0  0  0  0
  1 18  1  6  0  0  0
  2 18  1  1  0  0  0
  2  3  1  0  0  0  0
  2 12  1  0  0  0  0
  3 19  1  6  0  0  0
  3  4  1  0  0  0  0
  4 20  1  1  0  0  0
  4 10  1  0  0  0  0
  5  6  1  0  0  0  0
  5 14  1  1  0  0  0
  6 21  1  1  0  0  0
  7 13  1  6  0  0  0
  7  6  1  0  0  0  0
  8  9  1  6  0  0  0
  8  7  1  0  0  0  0
 10 16  1  6  0  0  0
 11 10  1  0  0  0  0
 12 17  1  6  0  0  0
 12 11  1  0  0  0  0
 15  9  1  0  0  0  0
 22  8  1  0  0  0  0
 22  1  1  0  0  0  0
M  END
>  <CHROM.1>
-170.35121702,75.38733358,-171.63260632,5.73090921,-0.39850023,-6.87251905
-0.96193668,-1.30923353,0.90646495

>  <Name>
lig.pdb

>  <RI>
0

>  <Rbt.Current_Directory>
/home/itssahil/PROJECTS/Mol_Feturizer/New_Systems/rnas/5bxk

>  <Rbt.Executable>
rbdock ($Id: //depot/dev/client3/rdock/2013.1/src/exe/rbdock.cxx#4 $)

>  <Rbt.Library>
libRbt.so (2013.1, Build901 2013/11/27)

>  <Rbt.Parameter_File>
/export/apps/rDock/src/rDock_2013.1_src/data/scripts/dock_solv.prm

>  <Rbt.Receptor>
prm/blind_docking_20.prm

>  <SCORE>
-4.10823

>  <SCORE.INTER>
-0.683426

>  <SCORE.INTER.CONST>
1

>  <SCORE.INTER.POLAR>
0

>  <SCORE.INTER.ROT>
3

>  <SCORE.INTER.SOLV>
14.9262

>  <SCORE.INTER.VDW>
-11.031

>  <SCORE.INTER.norm>
-0.0310648

>  <SCORE.INTRA>
-3.4248

>  <SCORE.INTRA.DIHEDRAL>
-5.2546

>  <SCORE.INTRA.DIHEDRAL.0>
7.18044

>  <SCORE.INTRA.POLAR>
0

>  <SCORE.INTRA.POLAR.0>
0

>  <SCORE.INTRA.REPUL>
0

>  <SCORE.INTRA.REPUL.0>
0

>  <SCORE.INTRA.SOLV>
-1.47384

>  <SCORE.INTRA.SOLV.lig_0>
-72.0615

>  <SCORE.INTRA.VDW>
-0.0605832

>  <SCORE.INTRA.VDW.0>
-1.54792

>  <SCORE.INTRA.norm>
-0.155673

>  <SCORE.RESTR>
0

>  <SCORE.RESTR.CAVITY>
0

>  <SCORE.RESTR.norm>
0

>  <SCORE.SYSTEM>
0

>  <SCORE.SYSTEM.CONST>
0

>  <SCORE.SYSTEM.DIHEDRAL>
0

>  <SCORE.SYSTEM.SOLV>
0

>  <SCORE.SYSTEM.norm>
0

>  <SCORE.heavy>
22

>  <SCORE.norm>
-0.186738

>  <RMSD>
36.869

$$$$
lig.pdb
 OpenBabel11021811523D
libRbt.so/2013.1/901 2013/11/27
 22 23  0  0  0  0  0  0  0  0999 V2000
    5.4161   -1.6523   -6.2061 C   0  0  1  0  0  0  0  0  0  0  0  0
    5.6397    0.7987   -6.6433 C   0  0  1  0  0  0  0  0  0  0  0  0
    5.0299    1.4916   -5.2878 C   0  0  1  0  0  0  0  0  0  0  0  0
    4.5338    2.9727   -5.6818 C   0  0  2  0  0  0  0  0  0  0  0  0
    6.1798   -2.9509   -5.6823 C   0  0  1  0  0  0  0  0  0  0  0  0
    7.1092   -3.5407   -6.8136 C   0  0  2  0  0  0  0  0  0  0  0  0
    6.1839   -3.9725   -8.0545 C   0  0  1  0  0  0  0  0  0  0  0  0
    5.4373   -2.6741   -8.6722 C   0  0  1  0  0  0  0  0  0  0  0  0
    4.5256   -2.9960   -9.8886 C   0  0  0  0  0  0  0  0  0  0  0  0
    5.8234    3.8059   -6.1561 C   0  0  1  0  0  0  0  0  0  0  0  0
    6.4030    3.0883   -7.4781 C   0  0  0  0  0  0  0  0  0  0  0  0
    6.8599    1.6024   -7.1533 C   0  0  2  0  0  0  0  0  0  0  0  0
    6.9736   -4.5529   -9.1458 F   0  0  0  0  0  0  0  0  0  0  0  0
    6.9604   -2.4994   -4.4387 N   0  0  0  0  0  0  0  0  0  0  0  0
    3.9930   -1.8555  -10.5395 N   0  0  0  0  0  0  0  0  0  0  0  0
    5.4298    5.1951   -6.5517 N   0  0  0  0  0  0  0  0  0  0  0  0
    7.3722    0.9354   -8.3466 N   0  0  0  0  0  0  0  0  0  0  0  0
    6.1338   -0.5008   -6.4101 O   0  0  0  0  0  0  0  0  0  0  0  0
    3.8519    0.6849   -4.8433 O   0  0  0  0  0  0  0  0  0  0  0  0
    4.0178    3.5671   -4.5391 O   0  0  0  0  0  0  0  0  0  0  0  0
    7.6405   -4.4956   -6.3762 O   0  0  0  0  0  0  0  0  0  0  0  0
    4.6172   -2.0220   -7.4972 O   0  0  0  0  0  0  0  0  0  0  0  0
  1  5  1  0  0  0  0
  1 18  1  6  0  0  0
  2 18  1  1  0  0  0
  2  3  1  0  0  0  0
  2 12  1  0  0  0  0
  3 19  1  6  0  0  0
  3  4  1  0  0  0  0
  4 20  1  1  0  0  0
  4 10  1  0  0  0  0
  5  6  1  0  0  0  0
  5 14  1  1  0  0  0
  6 21  1  1  0  0  0
  7 13  1  6  0  0  0
  7  6  1  0  0  0  0
  8  9  1  6  0  0  0
  8  7  1  0  0  0  0
 10 16  1  6  0  0  0
 11 10  1  0  0  0  0
 12 17  1  6  0  0  0
 12 11  1  0  0  0  0
 15  9  1  0  0  0  0
 22  8  1  0  0  0  0
 22  1  1  0  0  0  0
M  END
>  <CHROM.1>
-168.21026009,74.19762109,-172.78892929,5.73490796,-0.50505926,-6.94069868
-0.96444176,-1.31552777,0.87748373

>  <Name>
lig.pdb

>  <RI>
0

>  <Rbt.Current_Directory>
/home/itssahil/PROJECTS/Mol_Feturizer/New_Systems/rnas/5bxk

>  <Rbt.Executable>
rbdock ($Id: //depot/dev/client3/rdock/2013.1/src/exe/rbdock.cxx#4 $)

>  <Rbt.Library>
libRbt.so (2013.1, Build901 2013/11/27)

>  <Rbt.Parameter_File>
/export/apps/rDock/src/rDock_2013.1_src/data/scripts/dock_solv.prm

>  <Rbt.Receptor>
prm/blind_docking_20.prm

>  <SCORE>
-4.09628

>  <SCORE.INTER>
-0.696189

>  <SCORE.INTER.CONST>
1

>  <SCORE.INTER.POLAR>
0

>  <SCORE.INTER.ROT>
3

>  <SCORE.INTER.SOLV>
15.0748

>  <SCORE.INTER.VDW>
-11.0891

>  <SCORE.INTER.norm>
-0.0316449

>  <SCORE.INTRA>
-3.40009

>  <SCORE.INTRA.DIHEDRAL>
-5.26833

>  <SCORE.INTRA.DIHEDRAL.0>
7.18044

>  <SCORE.INTRA.POLAR>
0

>  <SCORE.INTRA.POLAR.0>
0

>  <SCORE.INTRA.REPUL>
0

>  <SCORE.INTRA.REPUL.0>
0

>  <SCORE.INTRA.SOLV>
-1.46612

>  <SCORE.INTRA.SOLV.lig_0>
-72.0615

>  <SCORE.INTRA.VDW>
-0.0328684

>  <SCORE.INTRA.VDW.0>
-1.54792

>  <SCORE.INTRA.norm>
-0.15455

>  <SCORE.RESTR>
0

>  <SCORE.RESTR.CAVITY>
0

>  <SCORE.RESTR.norm>
0

>  <SCORE.SYSTEM>
0

>  <SCORE.SYSTEM.CONST>
0

>  <SCORE.SYSTEM.DIHEDRAL>
0

>  <SCORE.SYSTEM.SOLV>
0

>  <SCORE.SYSTEM.norm>
0

>  <SCORE.heavy>
22

>  <SCORE.norm>
-0.186194

>  <RMSD>
36.907

$$$$
lig.pdb
 OpenBabel11021811523D
libRbt.so/2013.1/901 2013/11/27
 22 23  0  0  0  0  0  0  0  0999 V2000
    8.6113   -1.6094   -6.3509 C   0  0  1  0  0  0  0  0  0  0  0  0
    7.2019   -3.0811   -7.7987 C   0  0  1  0  0  0  0  0  0  0  0  0
    8.1479   -4.3509   -8.2253 C   0  0  1  0  0  0  0  0  0  0  0  0
    7.5769   -4.9358   -9.6135 C   0  0  2  0  0  0  0  0  0  0  0  0
    8.6818   -0.8619   -4.9437 C   0  0  1  0  0  0  0  0  0  0  0  0
    7.5135    0.1919   -4.8173 C   0  0  2  0  0  0  0  0  0  0  0  0
    7.6958    1.2907   -5.9757 C   0  0  1  0  0  0  0  0  0  0  0  0
    7.5610    0.5938   -7.4321 C   0  0  1  0  0  0  0  0  0  0  0  0
    7.7133    1.5867   -8.6176 C   0  0  0  0  0  0  0  0  0  0  0  0
    6.0859   -5.4680   -9.3386 C   0  0  1  0  0  0  0  0  0  0  0  0
    5.1912   -4.1981   -8.9080 C   0  0  0  0  0  0  0  0  0  0  0  0
    5.7459   -3.5516   -7.5677 C   0  0  2  0  0  0  0  0  0  0  0  0
    6.6561    2.3235   -5.9143 F   0  0  0  0  0  0  0  0  0  0  0  0
    8.6087   -1.9694   -3.8818 N   0  0  0  0  0  0  0  0  0  0  0  0
    7.5866    0.9935   -9.8983 N   0  0  0  0  0  0  0  0  0  0  0  0
    5.4876   -6.0156  -10.5970 N   0  0  0  0  0  0  0  0  0  0  0  0
    4.9537   -2.3900   -7.1752 N   0  0  0  0  0  0  0  0  0  0  0  0
    7.5942   -2.5028   -6.5744 O   0  0  0  0  0  0  0  0  0  0  0  0
    9.5369   -3.8423   -8.4451 O   0  0  0  0  0  0  0  0  0  0  0  0
    8.3712   -6.0126   -9.9808 O   0  0  0  0  0  0  0  0  0  0  0  0
    7.6173    0.7148   -3.7679 O   0  0  0  0  0  0  0  0  0  0  0  0
    8.6486   -0.5428   -7.4923 O   0  0  0  0  0  0  0  0  0  0  0  0
  1  5  1  0  0  0  0
  1 18  1  1  0  0  0
  2 18  1  1  0  0  0
  2  3  1  0  0  0  0
  2 12  1  0  0  0  0
  3 19  1  6  0  0  0
  3  4  1  0  0  0  0
  4 20  1  1  0  0  0
  4 10  1  0  0  0  0
  5  6  1  0  0  0  0
  5 14  1  1  0  0  0
  6 21  1  1  0  0  0
  7 13  1  1  0  0  0
  7  6  1  0  0  0  0
  8  9  1  6  0  0  0
  8  7  1  0  0  0  0
 10 16  1  6  0  0  0
 11 10  1  0  0  0  0
 12 17  1  6  0  0  0
 12 11  1  0  0  0  0
 15  9  1  0  0  0  0
 22  8  1  0  0  0  0
 22  1  1  0  0  0  0
M  END
>  <CHROM.1>
167.46589244,80.78542783,-179.49878541,7.41520560,-1.92310109,-7.40097592
-1.20738355,1.26132116,-2.93982081

>  <Name>
lig.pdb

>  <RI>
0

>  <Rbt.Current_Directory>
/home/itssahil/PROJECTS/Mol_Feturizer/New_Systems/rnas/5bxk

>  <Rbt.Executable>
rbdock ($Id: //depot/dev/client3/rdock/2013.1/src/exe/rbdock.cxx#4 $)

>  <Rbt.Library>
libRbt.so (2013.1, Build901 2013/11/27)

>  <Rbt.Parameter_File>
/export/apps/rDock/src/rDock_2013.1_src/data/scripts/dock_solv.prm

>  <Rbt.Receptor>
prm/blind_docking_20.prm

>  <SCORE>
-2.9905

>  <SCORE.INTER>
-0.0899282

>  <SCORE.INTER.CONST>
1

>  <SCORE.INTER.POLAR>
0

>  <SCORE.INTER.ROT>
3

>  <SCORE.INTER.SOLV>
15.4008

>  <SCORE.INTER.VDW>
-10.7936

>  <SCORE.INTER.norm>
-0.00408765

>  <SCORE.INTRA>
-2.91276

>  <SCORE.INTRA.DIHEDRAL>
-4.39441

>  <SCORE.INTRA.DIHEDRAL.0>
7.18044

>  <SCORE.INTRA.POLAR>
0

>  <SCORE.INTRA.POLAR.0>
0

>  <SCORE.INTRA.REPUL>
0

>  <SCORE.INTRA.REPUL.0>
0

>  <SCORE.INTRA.SOLV>
-1.16144

>  <SCORE.INTRA.SOLV.lig_0>
-72.0615

>  <SCORE.INTRA.VDW>
-0.134837

>  <SCORE.INTRA.VDW.0>
-1.54792

>  <SCORE.INTRA.norm>
-0.132398

>  <SCORE.RESTR>
0.0121919

>  <SCORE.RESTR.CAVITY>
0.0121919

>  <SCORE.RESTR.norm>
0.000554179

>  <SCORE.SYSTEM>
0

>  <SCORE.SYSTEM.CONST>
0

>  <SCORE.SYSTEM.DIHEDRAL>
0

>  <SCORE.SYSTEM.SOLV>
0

>  <SCORE.SYSTEM.norm>
0

>  <SCORE.heavy>
22

>  <SCORE.norm>
-0.135932

>  <RMSD>
36.917

$$$$
lig.pdb
 OpenBabel11021811523D
libRbt.so/2013.1/901 2013/11/27
 22 23  0  0  0  0  0  0  0  0999 V2000
    6.8170   -3.5937   -8.4819 C   0  0  1  0  0  0  0  0  0  0  0  0
    7.7475   -1.7166   -7.1183 C   0  0  1  0  0  0  0  0  0  0  0  0
    8.2600   -2.4894   -5.7658 C   0  0  1  0  0  0  0  0  0  0  0  0
    8.3043   -1.4049   -4.5753 C   0  0  2  0  0  0  0  0  0  0  0  0
    6.6691   -4.1439   -9.9716 C   0  0  1  0  0  0  0  0  0  0  0  0
    5.9335   -3.0853  -10.8825 C   0  0  2  0  0  0  0  0  0  0  0  0
    4.4590   -2.8460  -10.2903 C   0  0  1  0  0  0  0  0  0  0  0  0
    4.5514   -2.2179   -8.7997 C   0  0  1  0  0  0  0  0  0  0  0  0
    3.1673   -1.9418   -8.1498 C   0  0  0  0  0  0  0  0  0  0  0  0
    9.3870   -0.2877   -4.9772 C   0  0  1  0  0  0  0  0  0  0  0  0
    8.8582    0.4383   -6.3158 C   0  0  0  0  0  0  0  0  0  0  0  0
    8.7474   -0.6024   -7.5102 C   0  0  2  0  0  0  0  0  0  0  0  0
    3.6981   -1.8855  -11.0966 F   0  0  0  0  0  0  0  0  0  0  0  0
    8.0980   -4.4522  -10.4435 N   0  0  0  0  0  0  0  0  0  0  0  0
    3.2315   -1.3420   -6.8675 N   0  0  0  0  0  0  0  0  0  0  0  0
    9.4695    0.7641   -3.9149 N   0  0  0  0  0  0  0  0  0  0  0  0
    8.2538    0.0394   -8.7250 N   0  0  0  0  0  0  0  0  0  0  0  0
    7.6963   -2.5684   -8.2404 O   0  0  0  0  0  0  0  0  0  0  0  0
    7.2575   -3.5457   -5.4261 O   0  0  0  0  0  0  0  0  0  0  0  0
    8.7392   -2.0508   -3.4268 O   0  0  0  0  0  0  0  0  0  0  0  0
    5.8470   -3.5440  -11.9630 O   0  0  0  0  0  0  0  0  0  0  0  0
    5.4000   -3.2245   -7.9363 O   0  0  0  0  0  0  0  0  0  0  0  0
  1  5  1  0  0  0  0
  1 18  1  6  0  0  0
  2 18  1  6  0  0  0
  2  3  1  0  0  0  0
  2 12  1  0  0  0  0
  3 19  1  1  0  0  0
  3  4  1  0  0  0  0
  4 20  1  1  0  0  0
  4 10  1  0  0  0  0
  5  6  1  0  0  0  0
  5 14  1  6  0  0  0
  6 21  1  6  0  0  0
  7 13  1  6  0  0  0
  7  6  1  0  0  0  0
  8  9  1  1  0  0  0
  8  7  1  0  0  0  0
 10 16  1  1  0  0  0
 11 10  1  0  0  0  0
 12 17  1  6  0  0  0
 12 11  1  0  0  0  0
 15  9  1  0  0  0  0
 22  8  1  0  0  0  0
 22  1  1  0  0  0  0
M  END
>  <CHROM.1>
162.49785509,70.57848233,-177.56652652,6.79176812,-2.09792636,-7.80624031
-2.14827221,-0.07899244,1.15821464

>  <Name>
lig.pdb

>  <RI>
0

>  <Rbt.Current_Directory>
/home/itssahil/PROJECTS/Mol_Feturizer/New_Systems/rnas/5bxk

>  <Rbt.Executable>
rbdock ($Id: //depot/dev/client3/rdock/2013.1/src/exe/rbdock.cxx#4 $)

>  <Rbt.Library>
libRbt.so (2013.1, Build901 2013/11/27)

>  <Rbt.Parameter_File>
/export/apps/rDock/src/rDock_2013.1_src/data/scripts/dock_solv.prm

>  <Rbt.Receptor>
prm/blind_docking_20.prm

>  <SCORE>
-5.64712

>  <SCORE.INTER>
-2.28325

>  <SCORE.INTER.CONST>
1

>  <SCORE.INTER.POLAR>
0

>  <SCORE.INTER.ROT>
3

>  <SCORE.INTER.SOLV>
15.618

>  <SCORE.INTER.VDW>
-12.3282

>  <SCORE.INTER.norm>
-0.103784

>  <SCORE.INTRA>
-3.36387

>  <SCORE.INTRA.DIHEDRAL>
-5.12869

>  <SCORE.INTRA.DIHEDRAL.0>
7.18044

>  <SCORE.INTRA.POLAR>
0

>  <SCORE.INTRA.POLAR.0>
0

>  <SCORE.INTRA.REPUL>
0

>  <SCORE.INTRA.REPUL.0>
0

>  <SCORE.INTRA.SOLV>
-1.5199

>  <SCORE.INTRA.SOLV.lig_0>
-72.0615

>  <SCORE.INTRA.VDW>
-0.0395763

>  <SCORE.INTRA.VDW.0>
-1.54792

>  <SCORE.INTRA.norm>
-0.152903

>  <SCORE.RESTR>
0

>  <SCORE.RESTR.CAVITY>
0

>  <SCORE.RESTR.norm>
0

>  <SCORE.SYSTEM>
0

>  <SCORE.SYSTEM.CONST>
0

>  <SCORE.SYSTEM.DIHEDRAL>
0

>  <SCORE.SYSTEM.SOLV>
0

>  <SCORE.SYSTEM.norm>
0

>  <SCORE.heavy>
22

>  <SCORE.norm>
-0.256687

>  <RMSD>
37.028

$$$$
lig.pdb
 OpenBabel11021811523D
libRbt.so/2013.1/901 2013/11/27
 22 23  0  0  0  0  0  0  0  0999 V2000
    6.8220   -3.5943   -8.5215 C   0  0  1  0  0  0  0  0  0  0  0  0
    7.7516   -1.7270   -7.1440 C   0  0  1  0  0  0  0  0  0  0  0  0
    8.2444   -2.5087   -5.7893 C   0  0  1  0  0  0  0  0  0  0  0  0
    8.2856   -1.4289   -4.5946 C   0  0  2  0  0  0  0  0  0  0  0  0
    6.6616   -4.1191  -10.0192 C   0  0  1  0  0  0  0  0  0  0  0  0
    5.9205   -3.0443  -10.9062 C   0  0  2  0  0  0  0  0  0  0  0  0
    4.4509   -2.8131  -10.2984 C   0  0  1  0  0  0  0  0  0  0  0  0
    4.5559   -2.2105   -8.7982 C   0  0  1  0  0  0  0  0  0  0  0  0
    3.1773   -1.9436   -8.1329 C   0  0  0  0  0  0  0  0  0  0  0  0
    9.3814   -0.3191   -4.9817 C   0  0  1  0  0  0  0  0  0  0  0  0
    8.8718    0.4159   -6.3228 C   0  0  0  0  0  0  0  0  0  0  0  0
    8.7644   -0.6197   -7.5220 C   0  0  2  0  0  0  0  0  0  0  0  0
    3.6852   -1.8382  -11.0824 F   0  0  0  0  0  0  0  0  0  0  0  0
    8.0864   -4.4212  -10.5074 N   0  0  0  0  0  0  0  0  0  0  0  0
    3.2526   -1.3760   -6.8367 N   0  0  0  0  0  0  0  0  0  0  0  0
    9.4620    0.7281   -3.9149 N   0  0  0  0  0  0  0  0  0  0  0  0
    8.2882    0.0303   -8.7393 N   0  0  0  0  0  0  0  0  0  0  0  0
    7.7045   -2.5745   -8.2696 O   0  0  0  0  0  0  0  0  0  0  0  0
    7.2299   -3.5580   -5.4634 O   0  0  0  0  0  0  0  0  0  0  0  0
    8.7039   -2.0823   -3.4441 O   0  0  0  0  0  0  0  0  0  0  0  0
    5.8248   -3.4845  -11.9936 O   0  0  0  0  0  0  0  0  0  0  0  0
    5.4098   -3.2326   -7.9587 O   0  0  0  0  0  0  0  0  0  0  0  0
  1  5  1  0  0  0  0
  1 18  1  6  0  0  0
  2 18  1  6  0  0  0
  2  3  1  0  0  0  0
  2 12  1  0  0  0  0
  3 19  1  1  0  0  0
  3  4  1  0  0  0  0
  4 20  1  1  0  0  0
  4 10  1  0  0  0  0
  5  6  1  0  0  0  0
  5 14  1  6  0  0  0
  6 21  1  6  0  0  0
  7 13  1  6  0  0  0
  7  6  1  0  0  0  0
  8  9  1  1  0  0  0
  8  7  1  0  0  0  0
 10 16  1  1  0  0  0
 11 10  1  0  0  0  0
 12 17  1  6  0  0  0
 12 11  1  0  0  0  0
 15  9  1  0  0  0  0
 22  8  1  0  0  0  0
 22  1  1  0  0  0  0
M  END
>  <CHROM.1>
161.31627954,70.35351443,-178.06497697,6.78865846,-2.09808592,-7.82246735
-2.14621841,-0.05481069,1.18245134

>  <Name>
lig.pdb

>  <RI>
0

>  <Rbt.Current_Directory>
/home/itssahil/PROJECTS/Mol_Feturizer/New_Systems/rnas/5bxk

>  <Rbt.Executable>
rbdock ($Id: //depot/dev/client3/rdock/2013.1/src/exe/rbdock.cxx#4 $)

>  <Rbt.Library>
libRbt.so (2013.1, Build901 2013/11/27)

>  <Rbt.Parameter_File>
/export/apps/rDock/src/rDock_2013.1_src/data/scripts/dock_solv.prm

>  <Rbt.Receptor>
prm/blind_docking_20.prm

>  <SCORE>
-5.67648

>  <SCORE.INTER>
-2.37977

>  <SCORE.INTER.CONST>
1

>  <SCORE.INTER.POLAR>
0

>  <SCORE.INTER.ROT>
3

>  <SCORE.INTER.SOLV>
15.4722

>  <SCORE.INTER.VDW>
-12.3439

>  <SCORE.INTER.norm>
-0.108171

>  <SCORE.INTRA>
-3.29812

>  <SCORE.INTRA.DIHEDRAL>
-4.9847

>  <SCORE.INTRA.DIHEDRAL.0>
7.18044

>  <SCORE.INTRA.POLAR>
0

>  <SCORE.INTRA.POLAR.0>
0

>  <SCORE.INTRA.REPUL>
0

>  <SCORE.INTRA.REPUL.0>
0

>  <SCORE.INTRA.SOLV>
-1.49639

>  <SCORE.INTRA.SOLV.lig_0>
-72.0615

>  <SCORE.INTRA.VDW>
-0.0575765

>  <SCORE.INTRA.VDW.0>
-1.54792

>  <SCORE.INTRA.norm>
-0.149915

>  <SCORE.RESTR>
0.00140993

>  <SCORE.RESTR.CAVITY>
0.00140993

>  <SCORE.RESTR.norm>
6.40878e-05

>  <SCORE.SYSTEM>
0

>  <SCORE.SYSTEM.CONST>
0

>  <SCORE.SYSTEM.DIHEDRAL>
0

>  <SCORE.SYSTEM.SOLV>
0

>  <SCORE.SYSTEM.norm>
0

>  <SCORE.heavy>
22

>  <SCORE.norm>
-0.258022

>  <RMSD>
37.044

$$$$
lig.pdb
 OpenBabel11021811523D
libRbt.so/2013.1/901 2013/11/27
 22 23  0  0  0  0  0  0  0  0999 V2000
    5.8395    1.6010   -7.6621 C   0  0  1  0  0  0  0  0  0  0  0  0
    7.8034    0.0560   -7.5961 C   0  0  1  0  0  0  0  0  0  0  0  0
    7.2450   -1.1886   -6.6859 C   0  0  1  0  0  0  0  0  0  0  0  0
    8.0715   -2.5057   -7.1067 C   0  0  2  0  0  0  0  0  0  0  0  0
    5.2524    2.9919   -7.1474 C   0  0  1  0  0  0  0  0  0  0  0  0
    5.0100    2.9477   -5.5884 C   0  0  2  0  0  0  0  0  0  0  0  0
    3.9261    1.8028   -5.2772 C   0  0  1  0  0  0  0  0  0  0  0  0
    4.5029    0.3540   -5.7167 C   0  0  1  0  0  0  0  0  0  0  0  0
    3.5225   -0.8197   -5.4415 C   0  0  0  0  0  0  0  0  0  0  0  0
    7.7497   -2.8069   -8.6520 C   0  0  1  0  0  0  0  0  0  0  0  0
    8.2978   -1.5585   -9.5119 C   0  0  0  0  0  0  0  0  0  0  0  0
    7.5482   -0.2214   -9.0971 C   0  0  2  0  0  0  0  0  0  0  0  0
    3.6278    1.7111   -3.8440 F   0  0  0  0  0  0  0  0  0  0  0  0
    6.2791    4.0554   -7.5654 N   0  0  0  0  0  0  0  0  0  0  0  0
    4.0163   -2.0948   -5.8138 N   0  0  0  0  0  0  0  0  0  0  0  0
    8.5001   -4.0172   -9.1143 N   0  0  0  0  0  0  0  0  0  0  0  0
    8.0469    0.9206   -9.8576 N   0  0  0  0  0  0  0  0  0  0  0  0
    7.1278    1.2645   -7.3311 O   0  0  0  0  0  0  0  0  0  0  0  0
    7.5237   -0.8759   -5.2503 O   0  0  0  0  0  0  0  0  0  0  0  0
    7.6034   -3.5647   -6.3420 O   0  0  0  0  0  0  0  0  0  0  0  0
    4.5734    3.9921   -5.2660 O   0  0  0  0  0  0  0  0  0  0  0  0
    4.8622    0.4549   -7.2461 O   0  0  0  0  0  0  0  0  0  0  0  0
  1  5  1  0  0  0  0
  1 18  1  1  0  0  0
  2 18  1  1  0  0  0
  2  3  1  0  0  0  0
  2 12  1  0  0  0  0
  3 19  1  1  0  0  0
  3  4  1  0  0  0  0
  4 20  1  1  0  0  0
  4 10  1  0  0  0  0
  5  6  1  0  0  0  0
  5 14  1  1  0  0  0
  6 21  1  6  0  0  0
  7 13  1  1  0  0  0
  7  6  1  0  0  0  0
  8  9  1  6  0  0  0
  8  7  1  0  0  0  0
 10 16  1  6  0  0  0
 11 10  1  0  0  0  0
 12 17  1  6  0  0  0
 12 11  1  0  0  0  0
 15  9  1  0  0  0  0
 22  8  1  0  0  0  0
 22  1  1  0  0  0  0
M  END
>  <CHROM.1>
175.00553501,-71.15962877,-179.65821459,6.18407785,0.13736150,-6.88581152
-2.45682661,-0.81580590,2.91183612

>  <Name>
lig.pdb

>  <RI>
0

>  <Rbt.Current_Directory>
/home/itssahil/PROJECTS/Mol_Feturizer/New_Systems/rnas/5bxk

>  <Rbt.Executable>
rbdock ($Id: //depot/dev/client3/rdock/2013.1/src/exe/rbdock.cxx#4 $)

>  <Rbt.Library>
libRbt.so (2013.1, Build901 2013/11/27)

>  <Rbt.Parameter_File>
/export/apps/rDock/src/rDock_2013.1_src/data/scripts/dock_solv.prm

>  <Rbt.Receptor>
prm/blind_docking_20.prm

>  <SCORE>
-3.67859

>  <SCORE.INTER>
-1.03776

>  <SCORE.INTER.CONST>
1

>  <SCORE.INTER.POLAR>
0

>  <SCORE.INTER.ROT>
3

>  <SCORE.INTER.SOLV>
12.7772

>  <SCORE.INTER.VDW>
-10.5509

>  <SCORE.INTER.norm>
-0.047171

>  <SCORE.INTRA>
-2.64083

>  <SCORE.INTRA.DIHEDRAL>
-6.32943

>  <SCORE.INTRA.DIHEDRAL.0>
7.18044

>  <SCORE.INTRA.POLAR>
0

>  <SCORE.INTRA.POLAR.0>
0

>  <SCORE.INTRA.REPUL>
0

>  <SCORE.INTRA.REPUL.0>
0

>  <SCORE.INTRA.SOLV>
1.23193

>  <SCORE.INTRA.SOLV.lig_0>
-72.0615

>  <SCORE.INTRA.VDW>
-0.0920751

>  <SCORE.INTRA.VDW.0>
-1.54792

>  <SCORE.INTRA.norm>
-0.120038

>  <SCORE.RESTR>
0

>  <SCORE.RESTR.CAVITY>
0

>  <SCORE.RESTR.norm>
0

>  <SCORE.SYSTEM>
0

>  <SCORE.SYSTEM.CONST>
0

>  <SCORE.SYSTEM.DIHEDRAL>
0

>  <SCORE.SYSTEM.SOLV>
0

>  <SCORE.SYSTEM.norm>
0

>  <SCORE.heavy>
22

>  <SCORE.norm>
-0.167209

>  <RMSD>
37.108

$$$$
lig.pdb
 OpenBabel11021811523D
libRbt.so/2013.1/901 2013/11/27
 22 23  0  0  0  0  0  0  0  0999 V2000
    6.0849   -0.5367   -8.3905 C   0  0  1  0  0  0  0  0  0  0  0  0
    5.9096    1.2973   -6.7011 C   0  0  1  0  0  0  0  0  0  0  0  0
    6.1788    2.4643   -7.8214 C   0  0  1  0  0  0  0  0  0  0  0  0
    6.5505    3.8180   -7.0314 C   0  0  2  0  0  0  0  0  0  0  0  0
    5.1448   -1.4444   -9.3050 C   0  0  1  0  0  0  0  0  0  0  0  0
    4.7752   -2.7857   -8.5596 C   0  0  2  0  0  0  0  0  0  0  0  0
    6.1325   -3.5985   -8.2779 C   0  0  1  0  0  0  0  0  0  0  0  0
    7.0972   -2.7490   -7.2917 C   0  0  1  0  0  0  0  0  0  0  0  0
    8.4341   -3.4654   -6.9540 C   0  0  0  0  0  0  0  0  0  0  0  0
    5.2729    4.2304   -6.1483 C   0  0  1  0  0  0  0  0  0  0  0  0
    5.0304    3.0558   -5.0714 C   0  0  0  0  0  0  0  0  0  0  0  0
    4.7098    1.6833   -5.8032 C   0  0  2  0  0  0  0  0  0  0  0  0
    5.8724   -4.8745   -7.6027 F   0  0  0  0  0  0  0  0  0  0  0  0
    3.9175   -0.5783   -9.6262 N   0  0  0  0  0  0  0  0  0  0  0  0
    9.2577   -3.7282   -8.0768 N   0  0  0  0  0  0  0  0  0  0  0  0
    5.5562    5.4799   -5.3736 N   0  0  0  0  0  0  0  0  0  0  0  0
    4.5038    0.6069   -4.8388 N   0  0  0  0  0  0  0  0  0  0  0  0
    5.5461    0.0651   -7.2814 O   0  0  0  0  0  0  0  0  0  0  0  0
    7.3496    2.0482   -8.6536 O   0  0  0  0  0  0  0  0  0  0  0  0
    6.7781    4.8118   -7.9727 O   0  0  0  0  0  0  0  0  0  0  0  0
    4.0890   -3.4157   -9.2791 O   0  0  0  0  0  0  0  0  0  0  0  0
    7.3506   -1.3616   -7.9912 O   0  0  0  0  0  0  0  0  0  0  0  0
  1  5  1  0  0  0  0
  1 18  1  1  0  0  0
  2 18  1  6  0  0  0
  2  3  1  0  0  0  0
  2 12  1  0  0  0  0
  3 19  1  6  0  0  0
  3  4  1  0  0  0  0
  4 20  1  6  0  0  0
  4 10  1  0  0  0  0
  5  6  1  0  0  0  0
  5 14  1  1  0  0  0
  6 21  1  6  0  0  0
  7 13  1  1  0  0  0
  7  6  1  0  0  0  0
  8  9  1  6  0  0  0
  8  7  1  0  0  0  0
 10 16  1  1  0  0  0
 11 10  1  0  0  0  0
 12 17  1  1  0  0  0
 12 11  1  0  0  0  0
 15  9  1  0  0  0  0
 22  8  1  0  0  0  0
 22  1  1  0  0  0  0
M  END
>  <CHROM.1>
-148.50589055,42.14636562,61.32119742,5.99140850,-0.02578650,-7.48139981
-1.49554609,-0.05096130,0.23204419

>  <Name>
lig.pdb

>  <RI>
0

>  <Rbt.Current_Directory>
/home/itssahil/PROJECTS/Mol_Feturizer/New_Systems/rnas/5bxk

>  <Rbt.Executable>
rbdock ($Id: //depot/dev/client3/rdock/2013.1/src/exe/rbdock.cxx#4 $)

>  <Rbt.Library>
libRbt.so (2013.1, Build901 2013/11/27)

>  <Rbt.Parameter_File>
/export/apps/rDock/src/rDock_2013.1_src/data/scripts/dock_solv.prm

>  <Rbt.Receptor>
prm/blind_docking_20.prm

>  <SCORE>
-2.10619

>  <SCORE.INTER>
-1.32484

>  <SCORE.INTER.CONST>
1

>  <SCORE.INTER.POLAR>
0

>  <SCORE.INTER.ROT>
3

>  <SCORE.INTER.SOLV>
18.9334

>  <SCORE.INTER.VDW>
-12.7944

>  <SCORE.INTER.norm>
-0.0602199

>  <SCORE.INTRA>
-0.800832

>  <SCORE.INTRA.DIHEDRAL>
-1.84028

>  <SCORE.INTRA.DIHEDRAL.0>
7.18044

>  <SCORE.INTRA.POLAR>
0

>  <SCORE.INTRA.POLAR.0>
0

>  <SCORE.INTRA.REPUL>
0

>  <SCORE.INTRA.REPUL.0>
0

>  <SCORE.INTRA.SOLV>
-0.388302

>  <SCORE.INTRA.SOLV.lig_0>
-72.0615

>  <SCORE.INTRA.VDW>
0.31346

>  <SCORE.INTRA.VDW.0>
-1.54792

>  <SCORE.INTRA.norm>
-0.0364015

>  <SCORE.RESTR>
0.0194842

>  <SCORE.RESTR.CAVITY>
0.0194842

>  <SCORE.RESTR.norm>
0.000885647

>  <SCORE.SYSTEM>
0

>  <SCORE.SYSTEM.CONST>
0

>  <SCORE.SYSTEM.DIHEDRAL>
0

>  <SCORE.SYSTEM.SOLV>
0

>  <SCORE.SYSTEM.norm>
0

>  <SCORE.heavy>
22

>  <SCORE.norm>
-0.0957358

>  <RMSD>
37.376

$$$$
lig.pdb
 OpenBabel11021811523D
libRbt.so/2013.1/901 2013/11/27
 22 23  0  0  0  0  0  0  0  0999 V2000
    5.8500    0.2787   -8.6515 C   0  0  1  0  0  0  0  0  0  0  0  0
    7.1661   -0.2683   -6.5979 C   0  0  1  0  0  0  0  0  0  0  0  0
    8.4454   -1.2210   -6.2174 C   0  0  1  0  0  0  0  0  0  0  0  0
    8.5784   -1.2355   -4.6121 C   0  0  2  0  0  0  0  0  0  0  0  0
    4.5260   -0.6087   -8.5907 C   0  0  1  0  0  0  0  0  0  0  0  0
    4.7054   -1.9295   -9.4360 C   0  0  2  0  0  0  0  0  0  0  0  0
    4.9608   -1.5186  -10.9684 C   0  0  1  0  0  0  0  0  0  0  0  0
    6.3367   -0.6731  -11.0976 C   0  0  1  0  0  0  0  0  0  0  0  0
    6.6716   -0.2408  -12.5521 C   0  0  0  0  0  0  0  0  0  0  0  0
    8.8909    0.2677   -4.1379 C   0  0  1  0  0  0  0  0  0  0  0  0
    7.6214    1.1754   -4.5413 C   0  0  0  0  0  0  0  0  0  0  0  0
    7.4153    1.1810   -6.1159 C   0  0  2  0  0  0  0  0  0  0  0  0
    5.1176   -2.6964  -11.8286 F   0  0  0  0  0  0  0  0  0  0  0  0
    4.2766   -0.8796   -7.0994 N   0  0  0  0  0  0  0  0  0  0  0  0
    7.8917    0.4674  -12.6864 N   0  0  0  0  0  0  0  0  0  0  0  0
    9.0141    0.3290   -2.6471 N   0  0  0  0  0  0  0  0  0  0  0  0
    6.2582    1.9870   -6.4937 N   0  0  0  0  0  0  0  0  0  0  0  0
    6.9695   -0.1585   -7.9895 O   0  0  0  0  0  0  0  0  0  0  0  0
    8.1506   -2.6072   -6.6948 O   0  0  0  0  0  0  0  0  0  0  0  0
    9.6607   -2.0385   -4.2815 O   0  0  0  0  0  0  0  0  0  0  0  0
    3.7016   -2.5395   -9.3609 O   0  0  0  0  0  0  0  0  0  0  0  0
    6.1926    0.5738  -10.1473 O   0  0  0  0  0  0  0  0  0  0  0  0
  1  5  1  0  0  0  0
  1 18  1  6  0  0  0
  2 18  1  6  0  0  0
  2  3  1  0  0  0  0
  2 12  1  0  0  0  0
  3 19  1  1  0  0  0
  3  4  1  0  0  0  0
  4 20  1  6  0  0  0
  4 10  1  0  0  0  0
  5  6  1  0  0  0  0
  5 14  1  1  0  0  0
  6 21  1  6  0  0  0
  7 13  1  6  0  0  0
  7  6  1  0  0  0  0
  8  9  1  6  0  0  0
  8  7  1  0  0  0  0
 10 16  1  1  0  0  0
 11 10  1  0  0  0  0
 12 17  1  1  0  0  0
 12 11  1  0  0  0  0
 15  9  1  0  0  0  0
 22  8  1  0  0  0  0
 22  1  1  0  0  0  0
M  END
>  <CHROM.1>
-67.78291793,163.38041339,-178.31104119,6.72748449,-0.62032855,-7.91723971
-2.20883110,0.83753919,1.94603249

>  <Name>
lig.pdb

>  <RI>
0

>  <Rbt.Current_Directory>
/home/itssahil/PROJECTS/Mol_Feturizer/New_Systems/rnas/5bxk

>  <Rbt.Executable>
rbdock ($Id: //depot/dev/client3/rdock/2013.1/src/exe/rbdock.cxx#4 $)

>  <Rbt.Library>
libRbt.so (2013.1, Build901 2013/11/27)

>  <Rbt.Parameter_File>
/export/apps/rDock/src/rDock_2013.1_src/data/scripts/dock_solv.prm

>  <Rbt.Receptor>
prm/blind_docking_20.prm

>  <SCORE>
-3.9954

>  <SCORE.INTER>
-2.68739

>  <SCORE.INTER.CONST>
1

>  <SCORE.INTER.POLAR>
0

>  <SCORE.INTER.ROT>
3

>  <SCORE.INTER.SOLV>
11.8637

>  <SCORE.INTER.VDW>
-11.3462

>  <SCORE.INTER.norm>
-0.122154

>  <SCORE.INTRA>
-1.30801

>  <SCORE.INTRA.DIHEDRAL>
-5.4714

>  <SCORE.INTRA.DIHEDRAL.0>
7.18044

>  <SCORE.INTRA.POLAR>
0

>  <SCORE.INTRA.POLAR.0>
0

>  <SCORE.INTRA.REPUL>
0

>  <SCORE.INTRA.REPUL.0>
0

>  <SCORE.INTRA.SOLV>
1.83107

>  <SCORE.INTRA.SOLV.lig_0>
-72.0615

>  <SCORE.INTRA.VDW>
0.512153

>  <SCORE.INTRA.VDW.0>
-1.54792

>  <SCORE.INTRA.norm>
-0.0594552

>  <SCORE.RESTR>
0

>  <SCORE.RESTR.CAVITY>
0

>  <SCORE.RESTR.norm>
0

>  <SCORE.SYSTEM>
0

>  <SCORE.SYSTEM.CONST>
0

>  <SCORE.SYSTEM.DIHEDRAL>
0

>  <SCORE.SYSTEM.SOLV>
0

>  <SCORE.SYSTEM.norm>
0

>  <SCORE.heavy>
22

>  <SCORE.norm>
-0.181609

>  <RMSD>
37.395

$$$$
lig.pdb
 OpenBabel11021811523D
libRbt.so/2013.1/901 2013/11/27
 22 23  0  0  0  0  0  0  0  0999 V2000
    5.6014   -2.2359   -6.2997 C   0  0  1  0  0  0  0  0  0  0  0  0
    6.6580   -0.7144   -7.9781 C   0  0  1  0  0  0  0  0  0  0  0  0
    5.7948   -0.3453   -9.3227 C   0  0  1  0  0  0  0  0  0  0  0  0
    6.8457    0.0027  -10.4930 C   0  0  2  0  0  0  0  0  0  0  0  0
    6.7795   -2.9421   -5.4889 C   0  0  1  0  0  0  0  0  0  0  0  0
    7.9085   -3.4397   -6.4733 C   0  0  2  0  0  0  0  0  0  0  0  0
    7.2682   -4.5254   -7.4701 C   0  0  1  0  0  0  0  0  0  0  0  0
    6.1098   -3.8401   -8.3721 C   0  0  1  0  0  0  0  0  0  0  0  0
    5.4392   -4.8169   -9.3774 C   0  0  0  0  0  0  0  0  0  0  0  0
    7.6712    1.3022  -10.0326 C   0  0  1  0  0  0  0  0  0  0  0  0
    8.4930    0.9068   -8.7033 C   0  0  0  0  0  0  0  0  0  0  0  0
    7.5003    0.5044   -7.5309 C   0  0  2  0  0  0  0  0  0  0  0  0
    8.2629   -5.0555   -8.4087 F   0  0  0  0  0  0  0  0  0  0  0  0
    7.2786   -1.8926   -4.4844 N   0  0  0  0  0  0  0  0  0  0  0  0
    6.3109   -5.3207  -10.3746 N   0  0  0  0  0  0  0  0  0  0  0  0
    8.6804    1.6745  -11.0739 N   0  0  0  0  0  0  0  0  0  0  0  0
    8.2326    0.1283   -6.3254 N   0  0  0  0  0  0  0  0  0  0  0  0
    5.8351   -1.0113   -6.8727 O   0  0  0  0  0  0  0  0  0  0  0  0
    5.0090   -1.5550   -9.7169 O   0  0  0  0  0  0  0  0  0  0  0  0
    6.1229    0.3183  -11.6346 O   0  0  0  0  0  0  0  0  0  0  0  0
    8.7447   -3.9551   -5.8249 O   0  0  0  0  0  0  0  0  0  0  0  0
    5.0563   -3.2340   -7.3714 O   0  0  0  0  0  0  0  0  0  0  0  0
  1  5  1  0  0  0  0
  1 18  1  6  0  0  0
  2 18  1  1  0  0  0
  2  3  1  0  0  0  0
  2 12  1  0  0  0  0
  3 19  1  6  0  0  0
  3  4  1  0  0  0  0
  4 20  1  6  0  0  0
  4 10  1  0  0  0  0
  5  6  1  0  0  0  0
  5 14  1  1  0  0  0
  6 21  1  1  0  0  0
  7 13  1  6  0  0  0
  7  6  1  0  0  0  0
  8  9  1  6  0  0  0
  8  7  1  0  0  0  0
 10 16  1  6  0  0  0
 11 10  1  0  0  0  0
 12 17  1  1  0  0  0
 12 11  1  0  0  0  0
 15  9  1  0  0  0  0
 22  8  1  0  0  0  0
 22  1  1  0  0  0  0
M  END
>  <CHROM.1>
70.08832144,107.41385068,-64.03647919,6.89188934,-1.88021929,-8.17967123
-1.70919261,-1.23848432,-0.68165036

>  <Name>
lig.pdb

>  <RI>
0

>  <Rbt.Current_Directory>
/home/itssahil/PROJECTS/Mol_Feturizer/New_Systems/rnas/5bxk

>  <Rbt.Executable>
rbdock ($Id: //depot/dev/client3/rdock/2013.1/src/exe/rbdock.cxx#4 $)

>  <Rbt.Library>
libRbt.so (2013.1, Build901 2013/11/27)

>  <Rbt.Parameter_File>
/export/apps/rDock/src/rDock_2013.1_src/data/scripts/dock_solv.prm

>  <Rbt.Receptor>
prm/blind_docking_20.prm

>  <SCORE>
-1.08745

>  <SCORE.INTER>
-2.0294

>  <SCORE.INTER.CONST>
1

>  <SCORE.INTER.POLAR>
0

>  <SCORE.INTER.ROT>
3

>  <SCORE.INTER.SOLV>
11.0214

>  <SCORE.INTER.VDW>
-10.6267

>  <SCORE.INTER.norm>
-0.0922453

>  <SCORE.INTRA>
0.941951

>  <SCORE.INTRA.DIHEDRAL>
-0.0687167

>  <SCORE.INTRA.DIHEDRAL.0>
7.18044

>  <SCORE.INTRA.POLAR>
0

>  <SCORE.INTRA.POLAR.0>
0

>  <SCORE.INTRA.REPUL>
0

>  <SCORE.INTRA.REPUL.0>
0

>  <SCORE.INTRA.SOLV>
4.14905

>  <SCORE.INTRA.SOLV.lig_0>
-72.0615

>  <SCORE.INTRA.VDW>
-1.09821

>  <SCORE.INTRA.VDW.0>
-1.54792

>  <SCORE.INTRA.norm>
0.042816

>  <SCORE.RESTR>
0

>  <SCORE.RESTR.CAVITY>
0

>  <SCORE.RESTR.norm>
0

>  <SCORE.SYSTEM>
0

>  <SCORE.SYSTEM.CONST>
0

>  <SCORE.SYSTEM.DIHEDRAL>
0

>  <SCORE.SYSTEM.SOLV>
0

>  <SCORE.SYSTEM.norm>
0

>  <SCORE.heavy>
22

>  <SCORE.norm>
-0.0494293

>  <RMSD>
37.424

$$$$
lig.pdb
 OpenBabel11021811523D
libRbt.so/2013.1/901 2013/11/27
 22 23  0  0  0  0  0  0  0  0999 V2000
    6.9764   -3.0399   -9.2423 C   0  0  1  0  0  0  0  0  0  0  0  0
    7.8300   -1.4285   -7.5325 C   0  0  1  0  0  0  0  0  0  0  0  0
    8.1980   -2.4810   -6.3300 C   0  0  1  0  0  0  0  0  0  0  0  0
    8.2199   -1.6512   -4.9494 C   0  0  2  0  0  0  0  0  0  0  0  0
    6.7310   -3.1979  -10.8104 C   0  0  1  0  0  0  0  0  0  0  0  0
    5.8551   -2.0039  -11.3569 C   0  0  2  0  0  0  0  0  0  0  0  0
    4.4269   -2.0464  -10.6216 C   0  0  1  0  0  0  0  0  0  0  0  0
    4.6124   -1.8183   -9.0284 C   0  0  1  0  0  0  0  0  0  0  0  0
    3.2769   -1.8327   -8.2342 C   0  0  0  0  0  0  0  0  0  0  0  0
    9.3922   -0.5577   -5.0596 C   0  0  1  0  0  0  0  0  0  0  0  0
    9.0042    0.4475   -6.2585 C   0  0  0  0  0  0  0  0  0  0  0  0
    8.9189   -0.3340   -7.6383 C   0  0  2  0  0  0  0  0  0  0  0  0
    3.5410   -0.9760  -11.0916 F   0  0  0  0  0  0  0  0  0  0  0  0
    8.1288   -3.2565  -11.4449 N   0  0  0  0  0  0  0  0  0  0  0  0
    3.4164   -1.5690   -6.8489 N   0  0  0  0  0  0  0  0  0  0  0  0
    9.4595    0.2620   -3.8086 N   0  0  0  0  0  0  0  0  0  0  0  0
    8.5522    0.5625   -8.7306 N   0  0  0  0  0  0  0  0  0  0  0  0
    7.8098   -2.0433   -8.8009 O   0  0  0  0  0  0  0  0  0  0  0  0
    7.1136   -3.5087   -6.2641 O   0  0  0  0  0  0  0  0  0  0  0  0
    8.5327   -2.5348   -3.9263 O   0  0  0  0  0  0  0  0  0  0  0  0
    5.7015   -2.1742  -12.5113 O   0  0  0  0  0  0  0  0  0  0  0  0
    5.5933   -2.9406   -8.5217 O   0  0  0  0  0  0  0  0  0  0  0  0
  1  5  1  0  0  0  0
  1 18  1  6  0  0  0
  2 18  1  6  0  0  0
  2  3  1  0  0  0  0
  2 12  1  0  0  0  0
  3 19  1  1  0  0  0
  3  4  1  0  0  0  0
  4 20  1  1  0  0  0
  4 10  1  0  0  0  0
  5  6  1  0  0  0  0
  5 14  1  6  0  0  0
  6 21  1  6  0  0  0
  7 13  1  6  0  0  0
  7  6  1  0  0  0  0
  8  9  1  1  0  0  0
  8  7  1  0  0  0  0
 10 16  1  1  0  0  0
 11 10  1  0  0  0  0
 12 17  1  6  0  0  0
 12 11  1  0  0  0  0
 15  9  1  0  0  0  0
 22  8  1  0  0  0  0
 22  1  1  0  0  0  0
M  END
>  <CHROM.1>
156.50906233,63.10235062,-177.04441237,6.81840143,-1.74563964,-8.17584243
-2.15325853,0.14403212,1.48166053

>  <Name>
lig.pdb

>  <RI>
0

>  <Rbt.Current_Directory>
/home/itssahil/PROJECTS/Mol_Feturizer/New_Systems/rnas/5bxk

>  <Rbt.Executable>
rbdock ($Id: //depot/dev/client3/rdock/2013.1/src/exe/rbdock.cxx#4 $)

>  <Rbt.Library>
libRbt.so (2013.1, Build901 2013/11/27)

>  <Rbt.Parameter_File>
/export/apps/rDock/src/rDock_2013.1_src/data/scripts/dock_solv.prm

>  <Rbt.Receptor>
prm/blind_docking_20.prm

>  <SCORE>
-5.11404

>  <SCORE.INTER>
-2.03241

>  <SCORE.INTER.CONST>
1

>  <SCORE.INTER.POLAR>
0

>  <SCORE.INTER.ROT>
3

>  <SCORE.INTER.SOLV>
15.2996

>  <SCORE.INTER.VDW>
-12.0548

>  <SCORE.INTER.norm>
-0.0923821

>  <SCORE.INTRA>
-3.08251

>  <SCORE.INTRA.DIHEDRAL>
-4.65826

>  <SCORE.INTRA.DIHEDRAL.0>
7.18044

>  <SCORE.INTRA.POLAR>
0

>  <SCORE.INTRA.POLAR.0>
0

>  <SCORE.INTRA.REPUL>
0

>  <SCORE.INTRA.REPUL.0>
0

>  <SCORE.INTRA.SOLV>
-1.50728

>  <SCORE.INTRA.SOLV.lig_0>
-72.0615

>  <SCORE.INTRA.VDW>
0.000265402

>  <SCORE.INTRA.VDW.0>
-1.54792

>  <SCORE.INTRA.norm>
-0.140114

>  <SCORE.RESTR>
0.00087023

>  <SCORE.RESTR.CAVITY>
0.00087023

>  <SCORE.RESTR.norm>
3.95559e-05

>  <SCORE.SYSTEM>
0

>  <SCORE.SYSTEM.CONST>
0

>  <SCORE.SYSTEM.DIHEDRAL>
0

>  <SCORE.SYSTEM.SOLV>
0

>  <SCORE.SYSTEM.norm>
0

>  <SCORE.heavy>
22

>  <SCORE.norm>
-0.232456

>  <RMSD>
37.438

$$$$
lig.pdb
 OpenBabel11021811523D
libRbt.so/2013.1/901 2013/11/27
 22 23  0  0  0  0  0  0  0  0999 V2000
    6.0971   -0.8168   -8.6278 C   0  0  1  0  0  0  0  0  0  0  0  0
    5.9193    0.9282   -6.8468 C   0  0  1  0  0  0  0  0  0  0  0  0
    6.0766    2.1495   -7.9298 C   0  0  1  0  0  0  0  0  0  0  0  0
    6.4112    3.4907   -7.1026 C   0  0  2  0  0  0  0  0  0  0  0  0
    5.1654   -1.7635   -9.5108 C   0  0  1  0  0  0  0  0  0  0  0  0
    4.9549   -3.1554   -8.7969 C   0  0  2  0  0  0  0  0  0  0  0  0
    6.3875   -3.8672   -8.6440 C   0  0  1  0  0  0  0  0  0  0  0  0
    7.3534   -2.9791   -7.6936 C   0  0  1  0  0  0  0  0  0  0  0  0
    8.7623   -3.5986   -7.4796 C   0  0  0  0  0  0  0  0  0  0  0  0
    5.1542    3.7994   -6.1504 C   0  0  1  0  0  0  0  0  0  0  0  0
    5.0219    2.5734   -5.1121 C   0  0  0  0  0  0  0  0  0  0  0  0
    4.7419    1.2142   -5.8842 C   0  0  2  0  0  0  0  0  0  0  0  0
    6.2758   -5.1828   -8.0050 F   0  0  0  0  0  0  0  0  0  0  0  0
    3.8551   -0.9867   -9.7099 N   0  0  0  0  0  0  0  0  0  0  0  0
    9.5454   -3.6934   -8.6568 N   0  0  0  0  0  0  0  0  0  0  0  0
    5.4053    5.0322   -5.3389 N   0  0  0  0  0  0  0  0  0  0  0  0
    4.6359    0.0925   -4.9559 N   0  0  0  0  0  0  0  0  0  0  0  0
    5.5958   -0.2992   -7.4602 O   0  0  0  0  0  0  0  0  0  0  0  0
    7.2296    1.8294   -8.8268 O   0  0  0  0  0  0  0  0  0  0  0  0
    6.5441    4.5302   -8.0121 O   0  0  0  0  0  0  0  0  0  0  0  0
    4.2685   -3.8120   -9.4918 O   0  0  0  0  0  0  0  0  0  0  0  0
    7.4480   -1.5522   -8.3519 O   0  0  0  0  0  0  0  0  0  0  0  0
  1  5  1  0  0  0  0
  1 18  1  1  0  0  0
  2 18  1  6  0  0  0
  2  3  1  0  0  0  0
  2 12  1  0  0  0  0
  3 19  1  6  0  0  0
  3  4  1  0  0  0  0
  4 20  1  6  0  0  0
  4 10  1  0  0  0  0
  5  6  1  0  0  0  0
  5 14  1  1  0  0  0
  6 21  1  6  0  0  0
  7 13  1  1  0  0  0
  7  6  1  0  0  0  0
  8  9  1  6  0  0  0
  8  7  1  0  0  0  0
 10 16  1  1  0  0  0
 11 10  1  0  0  0  0
 12 17  1  1  0  0  0
 12 11  1  0  0  0  0
 15  9  1  0  0  0  0
 22  8  1  0  0  0  0
 22  1  1  0  0  0  0
M  END
>  <CHROM.1>
-149.50661592,40.77594662,64.33171254,6.05487517,-0.34633841,-7.69096668
-1.44759632,0.06612972,0.26992902

>  <Name>
lig.pdb

>  <RI>
0

>  <Rbt.Current_Directory>
/home/itssahil/PROJECTS/Mol_Feturizer/New_Systems/rnas/5bxk

>  <Rbt.Executable>
rbdock ($Id: //depot/dev/client3/rdock/2013.1/src/exe/rbdock.cxx#4 $)

>  <Rbt.Library>
libRbt.so (2013.1, Build901 2013/11/27)

>  <Rbt.Parameter_File>
/export/apps/rDock/src/rDock_2013.1_src/data/scripts/dock_solv.prm

>  <Rbt.Receptor>
prm/blind_docking_20.prm

>  <SCORE>
-1.60416

>  <SCORE.INTER>
-0.835326

>  <SCORE.INTER.CONST>
1

>  <SCORE.INTER.POLAR>
0

>  <SCORE.INTER.ROT>
3

>  <SCORE.INTER.SOLV>
17.8145

>  <SCORE.INTER.VDW>
-12.0951

>  <SCORE.INTER.norm>
-0.0379694

>  <SCORE.INTRA>
-0.772729

>  <SCORE.INTRA.DIHEDRAL>
-1.74658

>  <SCORE.INTRA.DIHEDRAL.0>
7.18044

>  <SCORE.INTRA.POLAR>
0

>  <SCORE.INTRA.POLAR.0>
0

>  <SCORE.INTRA.REPUL>
0

>  <SCORE.INTRA.REPUL.0>
0

>  <SCORE.INTRA.SOLV>
-0.419851

>  <SCORE.INTRA.SOLV.lig_0>
-72.0615

>  <SCORE.INTRA.VDW>
0.310486

>  <SCORE.INTRA.VDW.0>
-1.54792

>  <SCORE.INTRA.norm>
-0.0351241

>  <SCORE.RESTR>
0.00389316

>  <SCORE.RESTR.CAVITY>
0.00389316

>  <SCORE.RESTR.norm>
0.000176962

>  <SCORE.SYSTEM>
0

>  <SCORE.SYSTEM.CONST>
0

>  <SCORE.SYSTEM.DIHEDRAL>
0

>  <SCORE.SYSTEM.SOLV>
0

>  <SCORE.SYSTEM.norm>
0

>  <SCORE.heavy>
22

>  <SCORE.norm>
-0.0729165

>  <RMSD>
37.472

$$$$
lig.pdb
 OpenBabel11021811523D
libRbt.so/2013.1/901 2013/11/27
 22 23  0  0  0  0  0  0  0  0999 V2000
    4.2171   -0.6971   -6.7825 C   0  0  1  0  0  0  0  0  0  0  0  0
    5.6492    1.1861   -5.9755 C   0  0  1  0  0  0  0  0  0  0  0  0
    6.1475    1.8058   -7.4097 C   0  0  1  0  0  0  0  0  0  0  0  0
    6.5211    3.3536   -7.1652 C   0  0  2  0  0  0  0  0  0  0  0  0
    3.9896   -2.2755   -6.7523 C   0  0  1  0  0  0  0  0  0  0  0  0
    5.1207   -3.0137   -7.5690 C   0  0  2  0  0  0  0  0  0  0  0  0
    5.0400   -2.5271   -9.0984 C   0  0  1  0  0  0  0  0  0  0  0  0
    5.3357   -0.9370   -9.1945 C   0  0  1  0  0  0  0  0  0  0  0  0
    5.2893   -0.3782  -10.6436 C   0  0  0  0  0  0  0  0  0  0  0  0
    5.1785    4.1105   -6.7107 C   0  0  1  0  0  0  0  0  0  0  0  0
    4.7113    3.4659   -5.3090 C   0  0  0  0  0  0  0  0  0  0  0  0
    4.3795    1.9230   -5.4857 C   0  0  2  0  0  0  0  0  0  0  0  0
    6.0502   -3.1861   -9.9330 F   0  0  0  0  0  0  0  0  0  0  0  0
    3.9718   -2.6635   -5.2661 N   0  0  0  0  0  0  0  0  0  0  0  0
    6.2792   -0.9086  -11.5078 N   0  0  0  0  0  0  0  0  0  0  0  0
    5.4584    5.5584   -6.4525 N   0  0  0  0  0  0  0  0  0  0  0  0
    3.9704    1.3230   -4.2193 N   0  0  0  0  0  0  0  0  0  0  0  0
    5.2667   -0.1671   -6.0755 O   0  0  0  0  0  0  0  0  0  0  0  0
    7.3778    1.0680   -7.8322 O   0  0  0  0  0  0  0  0  0  0  0  0
    6.9422    3.8863   -8.3753 O   0  0  0  0  0  0  0  0  0  0  0  0
    4.9007   -4.1688   -7.5182 O   0  0  0  0  0  0  0  0  0  0  0  0
    4.2794   -0.2237   -8.2704 O   0  0  0  0  0  0  0  0  0  0  0  0
  1  5  1  0  0  0  0
  1 18  1  6  0  0  0
  2 18  1  6  0  0  0
  2  3  1  0  0  0  0
  2 12  1  0  0  0  0
  3 19  1  1  0  0  0
  3  4  1  0  0  0  0
  4 20  1  6  0  0  0
  4 10  1  0  0  0  0
  5  6  1  0  0  0  0
  5 14  1  1  0  0  0
  6 21  1  6  0  0  0
  7 13  1  6  0  0  0
  7  6  1  0  0  0  0
  8  9  1  6  0  0  0
  8  7  1  0  0  0  0
 10 16  1  1  0  0  0
 11 10  1  0  0  0  0
 12 17  1  1  0  0  0
 12 11  1  0  0  0  0
 15  9  1  0  0  0  0
 22  8  1  0  0  0  0
 22  1  1  0  0  0  0
M  END
>  <CHROM.1>
179.49526194,-65.00722682,-63.62813253,5.30740479,0.23487323,-7.48647005
1.72024894,-1.13459796,-2.67215576

>  <Name>
lig.pdb

>  <RI>
0

>  <Rbt.Current_Directory>
/home/itssahil/PROJECTS/Mol_Feturizer/New_Systems/rnas/5bxk

>  <Rbt.Executable>
rbdock ($Id: //depot/dev/client3/rdock/2013.1/src/exe/rbdock.cxx#4 $)

>  <Rbt.Library>
libRbt.so (2013.1, Build901 2013/11/27)

>  <Rbt.Parameter_File>
/export/apps/rDock/src/rDock_2013.1_src/data/scripts/dock_solv.prm

>  <Rbt.Receptor>
prm/blind_docking_20.prm

>  <SCORE>
-6.65509

>  <SCORE.INTER>
-3.51201

>  <SCORE.INTER.CONST>
1

>  <SCORE.INTER.POLAR>
0

>  <SCORE.INTER.ROT>
3

>  <SCORE.INTER.SOLV>
13.1635

>  <SCORE.INTER.VDW>
-12.3292

>  <SCORE.INTER.norm>
-0.159637

>  <SCORE.INTRA>
-3.14308

>  <SCORE.INTRA.DIHEDRAL>
-6.87406

>  <SCORE.INTRA.DIHEDRAL.0>
7.18044

>  <SCORE.INTRA.POLAR>
0

>  <SCORE.INTRA.POLAR.0>
0

>  <SCORE.INTRA.REPUL>
0

>  <SCORE.INTRA.REPUL.0>
0

>  <SCORE.INTRA.SOLV>
0.433606

>  <SCORE.INTRA.SOLV.lig_0>
-72.0615

>  <SCORE.INTRA.VDW>
0.0771482

>  <SCORE.INTRA.VDW.0>
-1.54792

>  <SCORE.INTRA.norm>
-0.142867

>  <SCORE.RESTR>
0

>  <SCORE.RESTR.CAVITY>
0

>  <SCORE.RESTR.norm>
0

>  <SCORE.SYSTEM>
0

>  <SCORE.SYSTEM.CONST>
0

>  <SCORE.SYSTEM.DIHEDRAL>
0

>  <SCORE.SYSTEM.SOLV>
0

>  <SCORE.SYSTEM.norm>
0

>  <SCORE.heavy>
22

>  <SCORE.norm>
-0.302504

>  <RMSD>
37.654

$$$$
lig.pdb
 OpenBabel11021811523D
libRbt.so/2013.1/901 2013/11/27
 22 23  0  0  0  0  0  0  0  0999 V2000
    4.1868   -0.6991   -6.7983 C   0  0  1  0  0  0  0  0  0  0  0  0
    5.6163    1.1828   -5.9837 C   0  0  1  0  0  0  0  0  0  0  0  0
    6.1042    1.7867   -7.4282 C   0  0  1  0  0  0  0  0  0  0  0  0
    6.4949    3.3328   -7.2000 C   0  0  2  0  0  0  0  0  0  0  0  0
    3.9575   -2.2773   -6.7682 C   0  0  1  0  0  0  0  0  0  0  0  0
    5.1067   -3.0190   -7.5559 C   0  0  2  0  0  0  0  0  0  0  0  0
    5.0618   -2.5374   -9.0884 C   0  0  1  0  0  0  0  0  0  0  0  0
    5.3608   -0.9480   -9.1829 C   0  0  1  0  0  0  0  0  0  0  0  0
    5.3486   -0.3939  -10.6346 C   0  0  0  0  0  0  0  0  0  0  0  0
    5.1646    4.1057   -6.7364 C   0  0  1  0  0  0  0  0  0  0  0  0
    4.7072    3.4764   -5.3246 C   0  0  0  0  0  0  0  0  0  0  0  0
    4.3592    1.9353   -5.4855 C   0  0  2  0  0  0  0  0  0  0  0  0
    6.0906   -3.2000   -9.8972 F   0  0  0  0  0  0  0  0  0  0  0  0
    3.9049   -2.6602   -5.2814 N   0  0  0  0  0  0  0  0  0  0  0  0
    6.3168   -0.9743  -11.4912 N   0  0  0  0  0  0  0  0  0  0  0  0
    5.4608    5.5529   -6.4926 N   0  0  0  0  0  0  0  0  0  0  0  0
    3.9587    1.3489   -4.2100 N   0  0  0  0  0  0  0  0  0  0  0  0
    5.2202   -0.1674   -6.0689 O   0  0  0  0  0  0  0  0  0  0  0  0
    7.3227    1.0343   -7.8586 O   0  0  0  0  0  0  0  0  0  0  0  0
    6.9073    3.8523   -8.4188 O   0  0  0  0  0  0  0  0  0  0  0  0
    4.8846   -4.1738   -7.5063 O   0  0  0  0  0  0  0  0  0  0  0  0
    4.2840   -0.2308   -8.2860 O   0  0  0  0  0  0  0  0  0  0  0  0
  1  5  1  0  0  0  0
  1 18  1  1  0  0  0
  2 18  1  6  0  0  0
  2  3  1  0  0  0  0
  2 12  1  0  0  0  0
  3 19  1  1  0  0  0
  3  4  1  0  0  0  0
  4 20  1  6  0  0  0
  4 10  1  0  0  0  0
  5  6  1  0  0  0  0
  5 14  1  1  0  0  0
  6 21  1  6  0  0  0
  7 13  1  6  0  0  0
  7  6  1  0  0  0  0
  8  9  1  6  0  0  0
  8  7  1  0  0  0  0
 10 16  1  1  0  0  0
 11 10  1  0  0  0  0
 12 17  1  1  0  0  0
 12 11  1  0  0  0  0
 15  9  1  0  0  0  0
 22  8  1  0  0  0  0
 22  1  1  0  0  0  0
M  END
>  <CHROM.1>
178.23241603,-62.44256892,-60.77405551,5.29613976,0.22507959,-7.49282248
1.70410202,-1.12539211,-2.69075958

>  <Name>
lig.pdb

>  <RI>
0

>  <Rbt.Current_Directory>
/home/itssahil/PROJECTS/Mol_Feturizer/New_Systems/rnas/5bxk

>  <Rbt.Executable>
rbdock ($Id: //depot/dev/client3/rdock/2013.1/src/exe/rbdock.cxx#4 $)

>  <Rbt.Library>
libRbt.so (2013.1, Build901 2013/11/27)

>  <Rbt.Parameter_File>
/export/apps/rDock/src/rDock_2013.1_src/data/scripts/dock_solv.prm

>  <Rbt.Receptor>
prm/blind_docking_20.prm

>  <SCORE>
-6.64837

>  <SCORE.INTER>
-3.50148

>  <SCORE.INTER.CONST>
1

>  <SCORE.INTER.POLAR>
0

>  <SCORE.INTER.ROT>
3

>  <SCORE.INTER.SOLV>
13.1125

>  <SCORE.INTER.VDW>
-12.3051

>  <SCORE.INTER.norm>
-0.159158

>  <SCORE.INTRA>
-3.14689

>  <SCORE.INTRA.DIHEDRAL>
-6.99878

>  <SCORE.INTRA.DIHEDRAL.0>
7.18044

>  <SCORE.INTRA.POLAR>
0

>  <SCORE.INTRA.POLAR.0>
0

>  <SCORE.INTRA.REPUL>
0

>  <SCORE.INTRA.REPUL.0>
0

>  <SCORE.INTRA.SOLV>
0.476704

>  <SCORE.INTRA.SOLV.lig_0>
-72.0615

>  <SCORE.INTRA.VDW>
0.114149

>  <SCORE.INTRA.VDW.0>
-1.54792

>  <SCORE.INTRA.norm>
-0.14304

>  <SCORE.RESTR>
0

>  <SCORE.RESTR.CAVITY>
0

>  <SCORE.RESTR.norm>
0

>  <SCORE.SYSTEM>
0

>  <SCORE.SYSTEM.CONST>
0

>  <SCORE.SYSTEM.DIHEDRAL>
0

>  <SCORE.SYSTEM.SOLV>
0

>  <SCORE.SYSTEM.norm>
0

>  <SCORE.heavy>
22

>  <SCORE.norm>
-0.302199

>  <RMSD>
37.662

$$$$
lig.pdb
 OpenBabel11021811523D
libRbt.so/2013.1/901 2013/11/27
 22 23  0  0  0  0  0  0  0  0999 V2000
    5.9596    1.1772   -8.1695 C   0  0  1  0  0  0  0  0  0  0  0  0
    7.4120   -0.8449   -8.3931 C   0  0  1  0  0  0  0  0  0  0  0  0
    7.5374   -1.0392  -10.0166 C   0  0  1  0  0  0  0  0  0  0  0  0
    7.8814   -2.5883  -10.2942 C   0  0  2  0  0  0  0  0  0  0  0  0
    5.8788    2.6791   -7.6386 C   0  0  1  0  0  0  0  0  0  0  0  0
    5.8936    2.7103   -6.0606 C   0  0  2  0  0  0  0  0  0  0  0  0
    4.5989    1.9221   -5.5269 C   0  0  1  0  0  0  0  0  0  0  0  0
    4.6661    0.3677   -5.9790 C   0  0  1  0  0  0  0  0  0  0  0  0
    3.4553   -0.4777   -5.4956 C   0  0  0  0  0  0  0  0  0  0  0  0
    9.3083   -2.8960   -9.6224 C   0  0  1  0  0  0  0  0  0  0  0  0
    9.1505   -2.6804   -8.0327 C   0  0  0  0  0  0  0  0  0  0  0  0
    8.7598   -1.1757   -7.7083 C   0  0  2  0  0  0  0  0  0  0  0  0
    4.5269    1.9232   -4.0618 F   0  0  0  0  0  0  0  0  0  0  0  0
    7.0790    3.4052   -8.2647 N   0  0  0  0  0  0  0  0  0  0  0  0
    3.5588   -1.8629   -5.7762 N   0  0  0  0  0  0  0  0  0  0  0  0
    9.6848   -4.3298   -9.8322 N   0  0  0  0  0  0  0  0  0  0  0  0
    8.5979   -0.9707   -6.2720 N   0  0  0  0  0  0  0  0  0  0  0  0
    7.1381    0.4890   -8.0284 O   0  0  0  0  0  0  0  0  0  0  0  0
    6.2106   -0.7174  -10.6269 O   0  0  0  0  0  0  0  0  0  0  0  0
    7.9911   -2.7610  -11.6666 O   0  0  0  0  0  0  0  0  0  0  0  0
    5.8263    3.8367   -5.7259 O   0  0  0  0  0  0  0  0  0  0  0  0
    4.7826    0.3578   -7.5490 O   0  0  0  0  0  0  0  0  0  0  0  0
  1  5  1  0  0  0  0
  1 18  1  1  0  0  0
  2 18  1  6  0  0  0
  2  3  1  0  0  0  0
  2 12  1  0  0  0  0
  3 19  1  6  0  0  0
  3  4  1  0  0  0  0
  4 20  1  6  0  0  0
  4 10  1  0  0  0  0
  5  6  1  0  0  0  0
  5 14  1  6  0  0  0
  6 21  1  6  0  0  0
  7 13  1  1  0  0  0
  7  6  1  0  0  0  0
  8  9  1  6  0  0  0
  8  7  1  0  0  0  0
 10 16  1  1  0  0  0
 11 10  1  0  0  0  0
 12 17  1  1  0  0  0
 12 11  1  0  0  0  0
 15  9  1  0  0  0  0
 22  8  1  0  0  0  0
 22  1  1  0  0  0  0
M  END
>  <CHROM.1>
178.21710151,73.05976998,-174.46919984,6.58546573,-0.11828598,-7.72671739
-2.44396591,-0.85576249,-3.13532575

>  <Name>
lig.pdb

>  <RI>
0

>  <Rbt.Current_Directory>
/home/itssahil/PROJECTS/Mol_Feturizer/New_Systems/rnas/5bxk

>  <Rbt.Executable>
rbdock ($Id: //depot/dev/client3/rdock/2013.1/src/exe/rbdock.cxx#4 $)

>  <Rbt.Library>
libRbt.so (2013.1, Build901 2013/11/27)

>  <Rbt.Parameter_File>
/export/apps/rDock/src/rDock_2013.1_src/data/scripts/dock_solv.prm

>  <Rbt.Receptor>
prm/blind_docking_20.prm

>  <SCORE>
-3.97105

>  <SCORE.INTER>
-0.106779

>  <SCORE.INTER.CONST>
1

>  <SCORE.INTER.POLAR>
0

>  <SCORE.INTER.ROT>
3

>  <SCORE.INTER.SOLV>
17.2582

>  <SCORE.INTER.VDW>
-11.4239

>  <SCORE.INTER.norm>
-0.00485359

>  <SCORE.INTRA>
-3.86427

>  <SCORE.INTRA.DIHEDRAL>
-6.10955

>  <SCORE.INTRA.DIHEDRAL.0>
7.18044

>  <SCORE.INTRA.POLAR>
0

>  <SCORE.INTRA.POLAR.0>
0

>  <SCORE.INTRA.REPUL>
0

>  <SCORE.INTRA.REPUL.0>
0

>  <SCORE.INTRA.SOLV>
-1.58958

>  <SCORE.INTRA.SOLV.lig_0>
-72.0615

>  <SCORE.INTRA.VDW>
-0.0147108

>  <SCORE.INTRA.VDW.0>
-1.54792

>  <SCORE.INTRA.norm>
-0.175649

>  <SCORE.RESTR>
0

>  <SCORE.RESTR.CAVITY>
0

>  <SCORE.RESTR.norm>
0

>  <SCORE.SYSTEM>
0

>  <SCORE.SYSTEM.CONST>
0

>  <SCORE.SYSTEM.DIHEDRAL>
0

>  <SCORE.SYSTEM.SOLV>
0

>  <SCORE.SYSTEM.norm>
0

>  <SCORE.heavy>
22

>  <SCORE.norm>
-0.180502

>  <RMSD>
37.674

$$$$
lig.pdb
 OpenBabel11021811523D
libRbt.so/2013.1/901 2013/11/27
 22 23  0  0  0  0  0  0  0  0999 V2000
    6.0916    1.9831   -8.0336 C   0  0  1  0  0  0  0  0  0  0  0  0
    7.3678   -0.1628   -8.1554 C   0  0  1  0  0  0  0  0  0  0  0  0
    7.4153   -0.4978   -9.7600 C   0  0  1  0  0  0  0  0  0  0  0  0
    7.6183   -2.0881   -9.9173 C   0  0  2  0  0  0  0  0  0  0  0  0
    6.1602    3.5268   -7.6381 C   0  0  1  0  0  0  0  0  0  0  0  0
    6.2753    3.6927   -6.0726 C   0  0  2  0  0  0  0  0  0  0  0  0
    4.9592    3.0630   -5.3990 C   0  0  1  0  0  0  0  0  0  0  0  0
    4.8779    1.4752   -5.7108 C   0  0  1  0  0  0  0  0  0  0  0  0
    3.6378    0.7774   -5.0866 C   0  0  0  0  0  0  0  0  0  0  0  0
    9.0390   -2.4623   -9.2662 C   0  0  1  0  0  0  0  0  0  0  0  0
    8.9598   -2.1060   -7.6961 C   0  0  0  0  0  0  0  0  0  0  0  0
    8.7082   -0.5520   -7.4870 C   0  0  2  0  0  0  0  0  0  0  0  0
    4.9785    3.1966   -3.9385 F   0  0  0  0  0  0  0  0  0  0  0  0
    7.3717    4.0947   -8.3926 N   0  0  0  0  0  0  0  0  0  0  0  0
    3.5225   -0.6003   -5.3978 N   0  0  0  0  0  0  0  0  0  0  0  0
    9.2866   -3.9354   -9.3667 N   0  0  0  0  0  0  0  0  0  0  0  0
    8.6183   -0.2183   -6.0687 N   0  0  0  0  0  0  0  0  0  0  0  0
    7.2200    1.2148   -7.8954 O   0  0  0  0  0  0  0  0  0  0  0  0
    6.0978   -0.1133  -10.3540 O   0  0  0  0  0  0  0  0  0  0  0  0
    7.6615   -2.3800  -11.2732 O   0  0  0  0  0  0  0  0  0  0  0  0
    6.3161    4.8455   -5.8387 O   0  0  0  0  0  0  0  0  0  0  0  0
    4.8956    1.3201   -7.2773 O   0  0  0  0  0  0  0  0  0  0  0  0
  1  5  1  0  0  0  0
  1 18  1  1  0  0  0
  2 18  1  6  0  0  0
  2  3  1  0  0  0  0
  2 12  1  0  0  0  0
  3 19  1  6  0  0  0
  3  4  1  0  0  0  0
  4 20  1  6  0  0  0
  4 10  1  0  0  0  0
  5  6  1  0  0  0  0
  5 14  1  6  0  0  0
  6 21  1  6  0  0  0
  7 13  1  1  0  0  0
  7  6  1  0  0  0  0
  8  9  1  6  0  0  0
  8  7  1  0  0  0  0
 10 16  1  1  0  0  0
 11 10  1  0  0  0  0
 12 17  1  1  0  0  0
 12 11  1  0  0  0  0
 15  9  1  0  0  0  0
 22  8  1  0  0  0  0
 22  1  1  0  0  0  0
M  END
>  <CHROM.1>
178.41893243,74.39731316,177.45589784,6.64507511,0.68603190,-7.51397035,-2.31747572
-0.90716542,-3.12508119

>  <Name>
lig.pdb

>  <RI>
0

>  <Rbt.Current_Directory>
/home/itssahil/PROJECTS/Mol_Feturizer/New_Systems/rnas/5bxk

>  <Rbt.Executable>
rbdock ($Id: //depot/dev/client3/rdock/2013.1/src/exe/rbdock.cxx#4 $)

>  <Rbt.Library>
libRbt.so (2013.1, Build901 2013/11/27)

>  <Rbt.Parameter_File>
/export/apps/rDock/src/rDock_2013.1_src/data/scripts/dock_solv.prm

>  <Rbt.Receptor>
prm/blind_docking_20.prm

>  <SCORE>
-4.16058

>  <SCORE.INTER>
-0.383551

>  <SCORE.INTER.CONST>
1

>  <SCORE.INTER.POLAR>
0

>  <SCORE.INTER.ROT>
3

>  <SCORE.INTER.SOLV>
18.7929

>  <SCORE.INTER.VDW>
-12.12

>  <SCORE.INTER.norm>
-0.0174342

>  <SCORE.INTRA>
-3.77919

>  <SCORE.INTRA.DIHEDRAL>
-6.03495

>  <SCORE.INTRA.DIHEDRAL.0>
7.18044

>  <SCORE.INTRA.POLAR>
0

>  <SCORE.INTRA.POLAR.0>
0

>  <SCORE.INTRA.REPUL>
0

>  <SCORE.INTRA.REPUL.0>
0

>  <SCORE.INTRA.SOLV>
-1.43914

>  <SCORE.INTRA.SOLV.lig_0>
-72.0615

>  <SCORE.INTRA.VDW>
-0.0421507

>  <SCORE.INTRA.VDW.0>
-1.54792

>  <SCORE.INTRA.norm>
-0.171781

>  <SCORE.RESTR>
0.00216236

>  <SCORE.RESTR.CAVITY>
0.00216236

>  <SCORE.RESTR.norm>
9.82889e-05

>  <SCORE.SYSTEM>
0

>  <SCORE.SYSTEM.CONST>
0

>  <SCORE.SYSTEM.DIHEDRAL>
0

>  <SCORE.SYSTEM.SOLV>
0

>  <SCORE.SYSTEM.norm>
0

>  <SCORE.heavy>
22

>  <SCORE.norm>
-0.189117

>  <RMSD>
37.684

$$$$
lig.pdb
 OpenBabel11021811523D
libRbt.so/2013.1/901 2013/11/27
 22 23  0  0  0  0  0  0  0  0999 V2000
    7.9257   -0.7210   -6.8480 C   0  0  1  0  0  0  0  0  0  0  0  0
    6.7703   -2.5099   -8.1570 C   0  0  1  0  0  0  0  0  0  0  0  0
    7.8011   -3.7851   -8.1795 C   0  0  1  0  0  0  0  0  0  0  0  0
    7.4569   -4.6635   -9.4853 C   0  0  2  0  0  0  0  0  0  0  0  0
    7.6798    0.4132   -5.7538 C   0  0  1  0  0  0  0  0  0  0  0  0
    6.5533    1.4097   -6.2327 C   0  0  2  0  0  0  0  0  0  0  0  0
    7.0488    2.1208   -7.5859 C   0  0  1  0  0  0  0  0  0  0  0  0
    7.2460    1.0178   -8.7561 C   0  0  1  0  0  0  0  0  0  0  0  0
    7.7152    1.6186  -10.1101 C   0  0  0  0  0  0  0  0  0  0  0  0
    5.9556   -5.2118   -9.3189 C   0  0  1  0  0  0  0  0  0  0  0  0
    4.9750   -3.9328   -9.2855 C   0  0  0  0  0  0  0  0  0  0  0  0
    5.3086   -3.0045   -8.0409 C   0  0  2  0  0  0  0  0  0  0  0  0
    6.0620    3.0831   -8.0876 F   0  0  0  0  0  0  0  0  0  0  0  0
    7.3132   -0.3307   -4.4608 N   0  0  0  0  0  0  0  0  0  0  0  0
    7.8165    0.6776  -11.1647 N   0  0  0  0  0  0  0  0  0  0  0  0
    5.5643   -6.0295  -10.5104 N   0  0  0  0  0  0  0  0  0  0  0  0
    4.4376   -1.8333   -8.0079 N   0  0  0  0  0  0  0  0  0  0  0  0
    6.9622   -1.6801   -7.0337 O   0  0  0  0  0  0  0  0  0  0  0  0
    9.1939   -3.2546   -8.3019 O   0  0  0  0  0  0  0  0  0  0  0  0
    8.3240   -5.7465   -9.5108 O   0  0  0  0  0  0  0  0  0  0  0  0
    6.4184    2.2245   -5.3942 O   0  0  0  0  0  0  0  0  0  0  0  0
    8.2754   -0.0413   -8.2109 O   0  0  0  0  0  0  0  0  0  0  0  0
  1  5  1  0  0  0  0
  1 18  1  6  0  0  0
  2 18  1  1  0  0  0
  2  3  1  0  0  0  0
  2 12  1  0  0  0  0
  3 19  1  6  0  0  0
  3  4  1  0  0  0  0
  4 20  1  1  0  0  0
  4 10  1  0  0  0  0
  5  6  1  0  0  0  0
  5 14  1  1  0  0  0
  6 21  1  1  0  0  0
  7 13  1  6  0  0  0
  7  6  1  0  0  0  0
  8  9  1  6  0  0  0
  8  7  1  0  0  0  0
 10 16  1  6  0  0  0
 11 10  1  0  0  0  0
 12 17  1  6  0  0  0
 12 11  1  0  0  0  0
 15  9  1  0  0  0  0
 22  8  1  0  0  0  0
 22  1  1  0  0  0  0
M  END
>  <CHROM.1>
159.66777428,79.59841892,-176.47352513,6.95883416,-1.30737949,-8.10588769
1.22653734,1.48958498,0.66446710

>  <Name>
lig.pdb

>  <RI>
0

>  <Rbt.Current_Directory>
/home/itssahil/PROJECTS/Mol_Feturizer/New_Systems/rnas/5bxk

>  <Rbt.Executable>
rbdock ($Id: //depot/dev/client3/rdock/2013.1/src/exe/rbdock.cxx#4 $)

>  <Rbt.Library>
libRbt.so (2013.1, Build901 2013/11/27)

>  <Rbt.Parameter_File>
/export/apps/rDock/src/rDock_2013.1_src/data/scripts/dock_solv.prm

>  <Rbt.Receptor>
prm/blind_docking_20.prm

>  <SCORE>
-1.80096

>  <SCORE.INTER>
0.620163

>  <SCORE.INTER.CONST>
1

>  <SCORE.INTER.POLAR>
0

>  <SCORE.INTER.ROT>
3

>  <SCORE.INTER.SOLV>
11.3552

>  <SCORE.INTER.VDW>
-8.97162

>  <SCORE.INTER.norm>
0.0281892

>  <SCORE.INTRA>
-2.42207

>  <SCORE.INTRA.DIHEDRAL>
-3.47934

>  <SCORE.INTRA.DIHEDRAL.0>
7.18044

>  <SCORE.INTRA.POLAR>
0

>  <SCORE.INTRA.POLAR.0>
0

>  <SCORE.INTRA.REPUL>
0

>  <SCORE.INTRA.REPUL.0>
0

>  <SCORE.INTRA.SOLV>
-1.12887

>  <SCORE.INTRA.SOLV.lig_0>
-72.0615

>  <SCORE.INTRA.VDW>
-0.117967

>  <SCORE.INTRA.VDW.0>
-1.54792

>  <SCORE.INTRA.norm>
-0.110094

>  <SCORE.RESTR>
0.000952831

>  <SCORE.RESTR.CAVITY>
0.000952831

>  <SCORE.RESTR.norm>
4.33105e-05

>  <SCORE.SYSTEM>
0

>  <SCORE.SYSTEM.CONST>
0

>  <SCORE.SYSTEM.DIHEDRAL>
0

>  <SCORE.SYSTEM.SOLV>
0

>  <SCORE.SYSTEM.norm>
0

>  <SCORE.heavy>
22

>  <SCORE.norm>
-0.0818616

>  <RMSD>
37.765

$$$$
lig.pdb
 OpenBabel11021811523D
libRbt.so/2013.1/901 2013/11/27
 22 23  0  0  0  0  0  0  0  0999 V2000
    5.2191   -0.5809   -8.8061 C   0  0  1  0  0  0  0  0  0  0  0  0
    7.0624   -0.8191   -7.1346 C   0  0  1  0  0  0  0  0  0  0  0  0
    6.6420    0.4935   -6.2461 C   0  0  1  0  0  0  0  0  0  0  0  0
    7.9227    0.9110   -5.3624 C   0  0  2  0  0  0  0  0  0  0  0  0
    4.1998   -1.3712   -9.7444 C   0  0  1  0  0  0  0  0  0  0  0  0
    4.9804   -2.1796  -10.8528 C   0  0  2  0  0  0  0  0  0  0  0  0
    5.7904   -1.1339  -11.7653 C   0  0  1  0  0  0  0  0  0  0  0  0
    6.8932   -0.3516  -10.8728 C   0  0  1  0  0  0  0  0  0  0  0  0
    7.7351    0.6767  -11.6779 C   0  0  0  0  0  0  0  0  0  0  0  0
    8.2435   -0.3091   -4.3671 C   0  0  1  0  0  0  0  0  0  0  0  0
    8.6366   -1.5822   -5.2743 C   0  0  0  0  0  0  0  0  0  0  0  0
    7.4205   -2.0031   -6.2047 C   0  0  2  0  0  0  0  0  0  0  0  0
    6.5298   -1.8071  -12.8385 F   0  0  0  0  0  0  0  0  0  0  0  0
    3.3857   -2.2735   -8.8048 N   0  0  0  0  0  0  0  0  0  0  0  0
    8.6893    1.3850  -10.9059 N   0  0  0  0  0  0  0  0  0  0  0  0
    9.4373    0.0084   -3.5213 N   0  0  0  0  0  0  0  0  0  0  0  0
    7.7691   -3.1458   -7.0438 N   0  0  0  0  0  0  0  0  0  0  0  0
    6.0016   -1.2933   -7.9327 O   0  0  0  0  0  0  0  0  0  0  0  0
    6.3159    1.6077   -7.1888 O   0  0  0  0  0  0  0  0  0  0  0  0
    7.5745    2.0206   -4.6056 O   0  0  0  0  0  0  0  0  0  0  0  0
    4.1828   -2.7356  -11.5162 O   0  0  0  0  0  0  0  0  0  0  0  0
    6.1124    0.3429   -9.6953 O   0  0  0  0  0  0  0  0  0  0  0  0
  1  5  1  0  0  0  0
  1 18  1  6  0  0  0
  2 18  1  6  0  0  0
  2  3  1  0  0  0  0
  2 12  1  0  0  0  0
  3 19  1  6  0  0  0
  3  4  1  0  0  0  0
  4 20  1  1  0  0  0
  4 10  1  0  0  0  0
  5  6  1  0  0  0  0
  5 14  1  1  0  0  0
  6 21  1  6  0  0  0
  7 13  1  6  0  0  0
  7  6  1  0  0  0  0
  8  9  1  6  0  0  0
  8  7  1  0  0  0  0
 10 16  1  1  0  0  0
 11 10  1  0  0  0  0
 12 17  1  6  0  0  0
 12 11  1  0  0  0  0
 15  9  1  0  0  0  0
 22  8  1  0  0  0  0
 22  1  1  0  0  0  0
M  END
>  <CHROM.1>
172.06673298,51.59802927,179.00506260,6.65535814,-0.63830033,-8.36327402
2.15009147,-0.87610971,-1.33293392

>  <Name>
lig.pdb

>  <RI>
0

>  <Rbt.Current_Directory>
/home/itssahil/PROJECTS/Mol_Feturizer/New_Systems/rnas/5bxk

>  <Rbt.Executable>
rbdock ($Id: //depot/dev/client3/rdock/2013.1/src/exe/rbdock.cxx#4 $)

>  <Rbt.Library>
libRbt.so (2013.1, Build901 2013/11/27)

>  <Rbt.Parameter_File>
/export/apps/rDock/src/rDock_2013.1_src/data/scripts/dock_solv.prm

>  <Rbt.Receptor>
prm/blind_docking_20.prm

>  <SCORE>
-4.47129

>  <SCORE.INTER>
-0.552015

>  <SCORE.INTER.CONST>
1

>  <SCORE.INTER.POLAR>
0

>  <SCORE.INTER.ROT>
3

>  <SCORE.INTER.SOLV>
17.7374

>  <SCORE.INTER.VDW>
-11.8805

>  <SCORE.INTER.norm>
-0.0250916

>  <SCORE.INTRA>
-3.91927

>  <SCORE.INTRA.DIHEDRAL>
-6.40416

>  <SCORE.INTRA.DIHEDRAL.0>
7.18044

>  <SCORE.INTRA.POLAR>
0

>  <SCORE.INTRA.POLAR.0>
0

>  <SCORE.INTRA.REPUL>
0

>  <SCORE.INTRA.REPUL.0>
0

>  <SCORE.INTRA.SOLV>
-1.71705

>  <SCORE.INTRA.SOLV.lig_0>
-72.0615

>  <SCORE.INTRA.VDW>
0.141328

>  <SCORE.INTRA.VDW.0>
-1.54792

>  <SCORE.INTRA.norm>
-0.178149

>  <SCORE.RESTR>
0

>  <SCORE.RESTR.CAVITY>
0

>  <SCORE.RESTR.norm>
0

>  <SCORE.SYSTEM>
0

>  <SCORE.SYSTEM.CONST>
0

>  <SCORE.SYSTEM.DIHEDRAL>
0

>  <SCORE.SYSTEM.SOLV>
0

>  <SCORE.SYSTEM.norm>
0

>  <SCORE.heavy>
22

>  <SCORE.norm>
-0.20324

>  <RMSD>
37.781

$$$$
lig.pdb
 OpenBabel11021811523D
libRbt.so/2013.1/901 2013/11/27
 22 23  0  0  0  0  0  0  0  0999 V2000
    5.5263   -0.1566   -9.1240 C   0  0  1  0  0  0  0  0  0  0  0  0
    5.0119    0.3660   -6.7342 C   0  0  1  0  0  0  0  0  0  0  0  0
    5.1101    1.9991   -6.8463 C   0  0  1  0  0  0  0  0  0  0  0  0
    5.3500    2.5733   -5.3604 C   0  0  2  0  0  0  0  0  0  0  0  0
    4.8942   -0.6525  -10.5019 C   0  0  1  0  0  0  0  0  0  0  0  0
    4.7681   -2.2258  -10.5188 C   0  0  2  0  0  0  0  0  0  0  0  0
    6.2422   -2.8529  -10.3917 C   0  0  1  0  0  0  0  0  0  0  0  0
    6.9049   -2.4376   -8.9728 C   0  0  1  0  0  0  0  0  0  0  0  0
    8.3329   -3.0111   -8.7571 C   0  0  0  0  0  0  0  0  0  0  0  0
    4.0627    2.1894   -4.4786 C   0  0  1  0  0  0  0  0  0  0  0  0
    3.9904    0.5808   -4.4036 C   0  0  0  0  0  0  0  0  0  0  0  0
    3.8053   -0.0391   -5.8540 C   0  0  2  0  0  0  0  0  0  0  0  0
    6.2141   -4.3191  -10.4209 F   0  0  0  0  0  0  0  0  0  0  0  0
    3.5380    0.0597  -10.6160 N   0  0  0  0  0  0  0  0  0  0  0  0
    8.8978   -2.7153   -7.4916 N   0  0  0  0  0  0  0  0  0  0  0  0
    4.2261    2.6839   -3.0750 N   0  0  0  0  0  0  0  0  0  0  0  0
    3.7546   -1.4971   -5.8019 N   0  0  0  0  0  0  0  0  0  0  0  0
    4.7730   -0.2475   -7.9808 O   0  0  0  0  0  0  0  0  0  0  0  0
    6.2934    2.3362   -7.6963 O   0  0  0  0  0  0  0  0  0  0  0  0
    5.4323    3.9558   -5.4461 O   0  0  0  0  0  0  0  0  0  0  0  0
    4.3040   -2.5348  -11.5553 O   0  0  0  0  0  0  0  0  0  0  0  0
    6.9039   -0.8643   -8.9161 O   0  0  0  0  0  0  0  0  0  0  0  0
  1  5  1  0  0  0  0
  1 18  1  1  0  0  0
  2 18  1  6  0  0  0
  2  3  1  0  0  0  0
  2 12  1  0  0  0  0
  3 19  1  6  0  0  0
  3  4  1  0  0  0  0
  4 20  1  6  0  0  0
  4 10  1  0  0  0  0
  5  6  1  0  0  0  0
  5 14  1  1  0  0  0
  6 21  1  6  0  0  0
  7 13  1  1  0  0  0
  7  6  1  0  0  0  0
  8  9  1  6  0  0  0
  8  7  1  0  0  0  0
 10 16  1  1  0  0  0
 11 10  1  0  0  0  0
 12 17  1  1  0  0  0
 12 11  1  0  0  0  0
 15  9  1  0  0  0  0
 22  8  1  0  0  0  0
 22  1  1  0  0  0  0
M  END
>  <CHROM.1>
-165.86833244,57.50806629,-176.83867121,5.40415773,-0.35271311,-7.82627736
1.31518165,0.69127242,-2.16868198

>  <Name>
lig.pdb

>  <RI>
0

>  <Rbt.Current_Directory>
/home/itssahil/PROJECTS/Mol_Feturizer/New_Systems/rnas/5bxk

>  <Rbt.Executable>
rbdock ($Id: //depot/dev/client3/rdock/2013.1/src/exe/rbdock.cxx#4 $)

>  <Rbt.Library>
libRbt.so (2013.1, Build901 2013/11/27)

>  <Rbt.Parameter_File>
/export/apps/rDock/src/rDock_2013.1_src/data/scripts/dock_solv.prm

>  <Rbt.Receptor>
prm/blind_docking_20.prm

>  <SCORE>
-3.97365

>  <SCORE.INTER>
-0.194061

>  <SCORE.INTER.CONST>
1

>  <SCORE.INTER.POLAR>
0

>  <SCORE.INTER.ROT>
3

>  <SCORE.INTER.SOLV>
20.5227

>  <SCORE.INTER.VDW>
-12.5703

>  <SCORE.INTER.norm>
-0.00882096

>  <SCORE.INTRA>
-3.77959

>  <SCORE.INTRA.DIHEDRAL>
-6.07149

>  <SCORE.INTRA.DIHEDRAL.0>
7.18044

>  <SCORE.INTRA.POLAR>
0

>  <SCORE.INTRA.POLAR.0>
0

>  <SCORE.INTRA.REPUL>
0

>  <SCORE.INTRA.REPUL.0>
0

>  <SCORE.INTRA.SOLV>
-1.80543

>  <SCORE.INTRA.SOLV.lig_0>
-72.0615

>  <SCORE.INTRA.VDW>
0.15887

>  <SCORE.INTRA.VDW.0>
-1.54792

>  <SCORE.INTRA.norm>
-0.1718

>  <SCORE.RESTR>
0

>  <SCORE.RESTR.CAVITY>
0

>  <SCORE.RESTR.norm>
0

>  <SCORE.SYSTEM>
0

>  <SCORE.SYSTEM.CONST>
0

>  <SCORE.SYSTEM.DIHEDRAL>
0

>  <SCORE.SYSTEM.SOLV>
0

>  <SCORE.SYSTEM.norm>
0

>  <SCORE.heavy>
22

>  <SCORE.norm>
-0.180621

>  <RMSD>
37.805

$$$$
lig.pdb
 OpenBabel11021811523D
libRbt.so/2013.1/901 2013/11/27
 22 23  0  0  0  0  0  0  0  0999 V2000
    6.8569   -1.7646   -9.9864 C   0  0  1  0  0  0  0  0  0  0  0  0
    4.7737   -2.7055   -8.9749 C   0  0  1  0  0  0  0  0  0  0  0  0
    5.3354   -3.2028   -7.5166 C   0  0  1  0  0  0  0  0  0  0  0  0
    4.0889   -3.2167   -6.4962 C   0  0  2  0  0  0  0  0  0  0  0  0
    8.0998   -2.1202  -10.9206 C   0  0  1  0  0  0  0  0  0  0  0  0
    8.9055   -3.3418  -10.3290 C   0  0  2  0  0  0  0  0  0  0  0  0
    9.4709   -2.9229   -8.8843 C   0  0  1  0  0  0  0  0  0  0  0  0
    8.2436   -2.6190   -7.8713 C   0  0  1  0  0  0  0  0  0  0  0  0
    8.6976   -2.2152   -6.4412 C   0  0  0  0  0  0  0  0  0  0  0  0
    3.5565   -1.7067   -6.3605 C   0  0  1  0  0  0  0  0  0  0  0  0
    3.0281   -1.2482   -7.8128 C   0  0  0  0  0  0  0  0  0  0  0  0
    4.2123   -1.2672   -8.8706 C   0  0  2  0  0  0  0  0  0  0  0  0
   10.2537   -4.0022   -8.2726 F   0  0  0  0  0  0  0  0  0  0  0  0
    7.5067   -2.4077  -12.3081 N   0  0  0  0  0  0  0  0  0  0  0  0
    9.3924   -0.9820   -6.3736 N   0  0  0  0  0  0  0  0  0  0  0  0
    2.3834   -1.6491   -5.4321 N   0  0  0  0  0  0  0  0  0  0  0  0
    3.7434   -0.8692  -10.1946 N   0  0  0  0  0  0  0  0  0  0  0  0
    5.7911   -2.6277   -9.9475 O   0  0  0  0  0  0  0  0  0  0  0  0
    5.8558   -4.5963   -7.6698 O   0  0  0  0  0  0  0  0  0  0  0  0
    4.5563   -3.6348   -5.2585 O   0  0  0  0  0  0  0  0  0  0  0  0
    9.8097   -3.5556  -11.0515 O   0  0  0  0  0  0  0  0  0  0  0  0
    7.3757   -1.4877   -8.5386 O   0  0  0  0  0  0  0  0  0  0  0  0
  1  5  1  0  0  0  0
  1 18  1  1  0  0  0
  2 18  1  6  0  0  0
  2  3  1  0  0  0  0
  2 12  1  0  0  0  0
  3 19  1  6  0  0  0
  3  4  1  0  0  0  0
  4 20  1  1  0  0  0
  4 10  1  0  0  0  0
  5  6  1  0  0  0  0
  5 14  1  6  0  0  0
  6 21  1  6  0  0  0
  7 13  1  1  0  0  0
  7  6  1  0  0  0  0
  8  9  1  1  0  0  0
  8  7  1  0  0  0  0
 10 16  1  1  0  0  0
 11 10  1  0  0  0  0
 12 17  1  6  0  0  0
 12 11  1  0  0  0  0
 15  9  1  0  0  0  0
 22  8  1  0  0  0  0
 22  1  1  0  0  0  0
M  END
>  <CHROM.1>
162.20736573,-66.90650766,65.55858028,6.52245478,-2.50758426,-8.42559613
0.44256812,0.20655264,-1.43446334

>  <Name>
lig.pdb

>  <RI>
0

>  <Rbt.Current_Directory>
/home/itssahil/PROJECTS/Mol_Feturizer/New_Systems/rnas/5bxk

>  <Rbt.Executable>
rbdock ($Id: //depot/dev/client3/rdock/2013.1/src/exe/rbdock.cxx#4 $)

>  <Rbt.Library>
libRbt.so (2013.1, Build901 2013/11/27)

>  <Rbt.Parameter_File>
/export/apps/rDock/src/rDock_2013.1_src/data/scripts/dock_solv.prm

>  <Rbt.Receptor>
prm/blind_docking_20.prm

>  <SCORE>
-3.18005

>  <SCORE.INTER>
-1.02022

>  <SCORE.INTER.CONST>
1

>  <SCORE.INTER.POLAR>
0

>  <SCORE.INTER.ROT>
3

>  <SCORE.INTER.SOLV>
20.5029

>  <SCORE.INTER.VDW>
-13.1144

>  <SCORE.INTER.norm>
-0.0463736

>  <SCORE.INTRA>
-2.15983

>  <SCORE.INTRA.DIHEDRAL>
-5.30181

>  <SCORE.INTRA.DIHEDRAL.0>
7.18044

>  <SCORE.INTRA.POLAR>
0

>  <SCORE.INTRA.POLAR.0>
0

>  <SCORE.INTRA.REPUL>
0

>  <SCORE.INTRA.REPUL.0>
0

>  <SCORE.INTRA.SOLV>
0.430381

>  <SCORE.INTRA.SOLV.lig_0>
-72.0615

>  <SCORE.INTRA.VDW>
0.275881

>  <SCORE.INTRA.VDW.0>
-1.54792

>  <SCORE.INTRA.norm>
-0.0981742

>  <SCORE.RESTR>
0

>  <SCORE.RESTR.CAVITY>
0

>  <SCORE.RESTR.norm>
0

>  <SCORE.SYSTEM>
0

>  <SCORE.SYSTEM.CONST>
0

>  <SCORE.SYSTEM.DIHEDRAL>
0

>  <SCORE.SYSTEM.SOLV>
0

>  <SCORE.SYSTEM.norm>
0

>  <SCORE.heavy>
22

>  <SCORE.norm>
-0.144548

>  <RMSD>
37.928

$$$$
lig.pdb
 OpenBabel11021811523D
libRbt.so/2013.1/901 2013/11/27
 22 23  0  0  0  0  0  0  0  0999 V2000
    7.3488   -1.4257   -7.1863 C   0  0  1  0  0  0  0  0  0  0  0  0
    6.6765   -3.0564   -8.9575 C   0  0  1  0  0  0  0  0  0  0  0  0
    7.7504   -4.2455   -8.6081 C   0  0  1  0  0  0  0  0  0  0  0  0
    7.9034   -5.1623   -9.9239 C   0  0  2  0  0  0  0  0  0  0  0  0
    6.8409   -0.5382   -5.9622 C   0  0  1  0  0  0  0  0  0  0  0  0
    5.9565    0.6629   -6.4785 C   0  0  2  0  0  0  0  0  0  0  0  0
    6.8659    1.5909   -7.4241 C   0  0  1  0  0  0  0  0  0  0  0  0
    7.3515    0.7559   -8.7248 C   0  0  1  0  0  0  0  0  0  0  0  0
    8.2310    1.5802   -9.7053 C   0  0  0  0  0  0  0  0  0  0  0  0
    6.4709   -5.8268  -10.2212 C   0  0  1  0  0  0  0  0  0  0  0  0
    5.4407   -4.6299  -10.5444 C   0  0  0  0  0  0  0  0  0  0  0  0
    5.2934   -3.6649   -9.2918 C   0  0  2  0  0  0  0  0  0  0  0  0
    6.1199    2.7476   -7.9309 F   0  0  0  0  0  0  0  0  0  0  0  0
    6.0708   -1.4996   -5.0444 N   0  0  0  0  0  0  0  0  0  0  0  0
    8.6087    0.8838  -10.8803 N   0  0  0  0  0  0  0  0  0  0  0  0
    6.5388   -6.6856  -11.4456 N   0  0  0  0  0  0  0  0  0  0  0  0
    4.3749   -2.5667   -9.5770 N   0  0  0  0  0  0  0  0  0  0  0  0
    6.4410   -2.2022   -7.8610 O   0  0  0  0  0  0  0  0  0  0  0  0
    9.0677   -3.6069   -8.3027 O   0  0  0  0  0  0  0  0  0  0  0  0
    8.8096   -6.1728   -9.6359 O   0  0  0  0  0  0  0  0  0  0  0  0
    5.6158    1.2842   -5.5386 O   0  0  0  0  0  0  0  0  0  0  0  0
    8.1207   -0.5091   -8.1893 O   0  0  0  0  0  0  0  0  0  0  0  0
  1  5  1  0  0  0  0
  1 18  1  6  0  0  0
  2 18  1  1  0  0  0
  2  3  1  0  0  0  0
  2 12  1  0  0  0  0
  3 19  1  6  0  0  0
  3  4  1  0  0  0  0
  4 20  1  1  0  0  0
  4 10  1  0  0  0  0
  5  6  1  0  0  0  0
  5 14  1  1  0  0  0
  6 21  1  1  0  0  0
  7 13  1  6  0  0  0
  7  6  1  0  0  0  0
  8  9  1  6  0  0  0
  8  7  1  0  0  0  0
 10 16  1  6  0  0  0
 11 10  1  0  0  0  0
 12 17  1  6  0  0  0
 12 11  1  0  0  0  0
 15  9  1  0  0  0  0
 22  8  1  0  0  0  0
 22  1  1  0  0  0  0
M  END
>  <CHROM.1>
-179.75838505,60.08794740,-177.03098716,6.91625882,-1.85251690,-8.49863316
1.68626326,1.06563534,0.28455599

>  <Name>
lig.pdb

>  <RI>
0

>  <Rbt.Current_Directory>
/home/itssahil/PROJECTS/Mol_Feturizer/New_Systems/rnas/5bxk

>  <Rbt.Executable>
rbdock ($Id: //depot/dev/client3/rdock/2013.1/src/exe/rbdock.cxx#4 $)

>  <Rbt.Library>
libRbt.so (2013.1, Build901 2013/11/27)

>  <Rbt.Parameter_File>
/export/apps/rDock/src/rDock_2013.1_src/data/scripts/dock_solv.prm

>  <Rbt.Receptor>
prm/blind_docking_40.prm

>  <SCORE>
-4.40861

>  <SCORE.INTER>
-0.0617934

>  <SCORE.INTER.CONST>
1

>  <SCORE.INTER.POLAR>
0

>  <SCORE.INTER.ROT>
3

>  <SCORE.INTER.SOLV>
11.2518

>  <SCORE.INTER.VDW>
-9.39179

>  <SCORE.INTER.norm>
-0.00280879

>  <SCORE.INTRA>
-4.34682

>  <SCORE.INTRA.DIHEDRAL>
-7.01227

>  <SCORE.INTRA.DIHEDRAL.0>
7.18044

>  <SCORE.INTRA.POLAR>
0

>  <SCORE.INTRA.POLAR.0>
0

>  <SCORE.INTRA.REPUL>
0

>  <SCORE.INTRA.REPUL.0>
0

>  <SCORE.INTRA.SOLV>
-1.83911

>  <SCORE.INTRA.SOLV.lig_0>
-72.0615

>  <SCORE.INTRA.VDW>
0.0788667

>  <SCORE.INTRA.VDW.0>
-1.54792

>  <SCORE.INTRA.norm>
-0.197583

>  <SCORE.RESTR>
0

>  <SCORE.RESTR.CAVITY>
0

>  <SCORE.RESTR.norm>
0

>  <SCORE.SYSTEM>
0

>  <SCORE.SYSTEM.CONST>
0

>  <SCORE.SYSTEM.DIHEDRAL>
0

>  <SCORE.SYSTEM.SOLV>
0

>  <SCORE.SYSTEM.norm>
0

>  <SCORE.heavy>
22

>  <SCORE.norm>
-0.200391

>  <RMSD>
38.058

$$$$
lig.pdb
 OpenBabel11021811523D
libRbt.so/2013.1/901 2013/11/27
 22 23  0  0  0  0  0  0  0  0999 V2000
    8.8713   -2.3902   -8.9767 C   0  0  1  0  0  0  0  0  0  0  0  0
    7.8529   -0.8324  -10.6454 C   0  0  1  0  0  0  0  0  0  0  0  0
    8.1277    0.5339   -9.7811 C   0  0  1  0  0  0  0  0  0  0  0  0
    8.0948    1.7731  -10.8099 C   0  0  2  0  0  0  0  0  0  0  0  0
    8.7590   -3.8273   -8.2937 C   0  0  1  0  0  0  0  0  0  0  0  0
    7.5915   -3.8459   -7.2317 C   0  0  2  0  0  0  0  0  0  0  0  0
    7.9338   -2.7737   -6.0848 C   0  0  1  0  0  0  0  0  0  0  0  0
    7.9892   -1.2818   -6.7141 C   0  0  1  0  0  0  0  0  0  0  0  0
    8.3046   -0.1738   -5.6713 C   0  0  0  0  0  0  0  0  0  0  0  0
    9.2985    1.5681  -11.8545 C   0  0  1  0  0  0  0  0  0  0  0  0
    9.0024    0.2113  -12.6729 C   0  0  0  0  0  0  0  0  0  0  0  0
    8.9732   -1.0380  -11.6929 C   0  0  2  0  0  0  0  0  0  0  0  0
    6.9023   -2.7441   -5.0423 F   0  0  0  0  0  0  0  0  0  0  0  0
    8.5378   -4.8181   -9.4466 N   0  0  0  0  0  0  0  0  0  0  0  0
    9.5127   -0.3689   -4.9568 N   0  0  0  0  0  0  0  0  0  0  0  0
    9.3178    2.6836  -12.8529 N   0  0  0  0  0  0  0  0  0  0  0  0
    8.6898   -2.2720  -12.4197 N   0  0  0  0  0  0  0  0  0  0  0  0
    7.8869   -1.9931   -9.8460 O   0  0  0  0  0  0  0  0  0  0  0  0
    7.0158    0.6904   -8.7934 O   0  0  0  0  0  0  0  0  0  0  0  0
    8.3286    2.9338  -10.0863 O   0  0  0  0  0  0  0  0  0  0  0  0
    7.5584   -4.9227   -6.7576 O   0  0  0  0  0  0  0  0  0  0  0  0
    9.0674   -1.3141   -7.8608 O   0  0  0  0  0  0  0  0  0  0  0  0
  1  5  1  0  0  0  0
  1 18  1  1  0  0  0
  2 18  1  1  0  0  0
  2  3  1  0  0  0  0
  2 12  1  0  0  0  0
  3 19  1  1  0  0  0
  3  4  1  0  0  0  0
  4 20  1  1  0  0  0
  4 10  1  0  0  0  0
  5  6  1  0  0  0  0
  5 14  1  6  0  0  0
  6 21  1  1  0  0  0
  7 13  1  1  0  0  0
  7  6  1  0  0  0  0
  8  9  1  1  0  0  0
  8  7  1  0  0  0  0
 10 16  1  6  0  0  0
 11 10  1  0  0  0  0
 12 17  1  6  0  0  0
 12 11  1  0  0  0  0
 15  9  1  0  0  0  0
 22  8  1  0  0  0  0
 22  1  1  0  0  0  0
M  END
>  <CHROM.1>
-173.55101699,-51.99278585,56.50567274,8.31121624,-1.11693023,-8.94182027
-2.79120060,1.44627983,0.32409027

>  <Name>
lig.pdb

>  <RI>
0

>  <Rbt.Current_Directory>
/home/itssahil/PROJECTS/Mol_Feturizer/New_Systems/rnas/5bxk

>  <Rbt.Executable>
rbdock ($Id: //depot/dev/client3/rdock/2013.1/src/exe/rbdock.cxx#4 $)

>  <Rbt.Library>
libRbt.so (2013.1, Build901 2013/11/27)

>  <Rbt.Parameter_File>
/export/apps/rDock/src/rDock_2013.1_src/data/scripts/dock_solv.prm

>  <Rbt.Receptor>
prm/blind_docking_20.prm

>  <SCORE>
-4.57698

>  <SCORE.INTER>
-1.82129

>  <SCORE.INTER.CONST>
1

>  <SCORE.INTER.POLAR>
0

>  <SCORE.INTER.ROT>
3

>  <SCORE.INTER.SOLV>
16.2086

>  <SCORE.INTER.VDW>
-12.217

>  <SCORE.INTER.norm>
-0.0827858

>  <SCORE.INTRA>
-2.75569

>  <SCORE.INTRA.DIHEDRAL>
-6.4942

>  <SCORE.INTRA.DIHEDRAL.0>
7.18044

>  <SCORE.INTRA.POLAR>
0

>  <SCORE.INTRA.POLAR.0>
0

>  <SCORE.INTRA.REPUL>
0

>  <SCORE.INTRA.REPUL.0>
0

>  <SCORE.INTRA.SOLV>
0.978139

>  <SCORE.INTRA.SOLV.lig_0>
-72.0615

>  <SCORE.INTRA.VDW>
0.00234146

>  <SCORE.INTRA.VDW.0>
-1.54792

>  <SCORE.INTRA.norm>
-0.125259

>  <SCORE.RESTR>
0

>  <SCORE.RESTR.CAVITY>
0

>  <SCORE.RESTR.norm>
0

>  <SCORE.SYSTEM>
0

>  <SCORE.SYSTEM.CONST>
0

>  <SCORE.SYSTEM.DIHEDRAL>
0

>  <SCORE.SYSTEM.SOLV>
0

>  <SCORE.SYSTEM.norm>
0

>  <SCORE.heavy>
22

>  <SCORE.norm>
-0.208044

>  <RMSD>
38.076

$$$$
lig.pdb
 OpenBabel11021811523D
libRbt.so/2013.1/901 2013/11/27
 22 23  0  0  0  0  0  0  0  0999 V2000
    8.7189   -2.4011   -8.9893 C   0  0  1  0  0  0  0  0  0  0  0  0
    7.7247   -0.7754  -10.6071 C   0  0  1  0  0  0  0  0  0  0  0  0
    8.0840    0.5696   -9.7405 C   0  0  1  0  0  0  0  0  0  0  0  0
    8.0824    1.8174  -10.7594 C   0  0  2  0  0  0  0  0  0  0  0  0
    8.5630   -3.8439   -8.3274 C   0  0  1  0  0  0  0  0  0  0  0  0
    7.4325   -3.8287   -7.2260 C   0  0  2  0  0  0  0  0  0  0  0  0
    7.8629   -2.7948   -6.0735 C   0  0  1  0  0  0  0  0  0  0  0  0
    7.9663   -1.2956   -6.6788 C   0  0  1  0  0  0  0  0  0  0  0  0
    8.3681   -0.2229   -5.6289 C   0  0  0  0  0  0  0  0  0  0  0  0
    9.2486    1.5659  -11.8359 C   0  0  1  0  0  0  0  0  0  0  0  0
    8.8695    0.2309  -12.6559 C   0  0  0  0  0  0  0  0  0  0  0  0
    8.8075   -1.0238  -11.6844 C   0  0  2  0  0  0  0  0  0  0  0  0
    6.8697   -2.7373   -4.9956 F   0  0  0  0  0  0  0  0  0  0  0  0
    8.2570   -4.8018   -9.4885 N   0  0  0  0  0  0  0  0  0  0  0  0
    9.5926   -0.4831   -4.9648 N   0  0  0  0  0  0  0  0  0  0  0  0
    9.2941    2.6875  -12.8266 N   0  0  0  0  0  0  0  0  0  0  0  0
    8.4491   -2.2374  -12.4123 N   0  0  0  0  0  0  0  0  0  0  0  0
    7.7252   -1.9430   -9.8171 O   0  0  0  0  0  0  0  0  0  0  0  0
    7.0059    0.7690   -8.7236 O   0  0  0  0  0  0  0  0  0  0  0  0
    8.3877    2.9601  -10.0339 O   0  0  0  0  0  0  0  0  0  0  0  0
    7.3654   -4.9114   -6.7694 O   0  0  0  0  0  0  0  0  0  0  0  0
    9.0024   -1.3560   -7.8626 O   0  0  0  0  0  0  0  0  0  0  0  0
  1  5  1  0  0  0  0
  1 18  1  1  0  0  0
  2 18  1  1  0  0  0
  2  3  1  0  0  0  0
  2 12  1  0  0  0  0
  3 19  1  1  0  0  0
  3  4  1  0  0  0  0
  4 20  1  1  0  0  0
  4 10  1  0  0  0  0
  5  6  1  0  0  0  0
  5 14  1  6  0  0  0
  6 21  1  1  0  0  0
  7 13  1  1  0  0  0
  7  6  1  0  0  0  0
  8  9  1  1  0  0  0
  8  7  1  0  0  0  0
 10 16  1  6  0  0  0
 11 10  1  0  0  0  0
 12 17  1  6  0  0  0
 12 11  1  0  0  0  0
 15  9  1  0  0  0  0
 22  8  1  0  0  0  0
 22  1  1  0  0  0  0
M  END
>  <CHROM.1>
-172.72485886,-52.91599794,56.79606718,8.22479815,-1.10981983,-8.92327820
3.03431303,1.44895669,0.79163306

>  <Name>
lig.pdb

>  <RI>
0

>  <Rbt.Current_Directory>
/home/itssahil/PROJECTS/Mol_Feturizer/New_Systems/rnas/5bxk

>  <Rbt.Executable>
rbdock ($Id: //depot/dev/client3/rdock/2013.1/src/exe/rbdock.cxx#4 $)

>  <Rbt.Library>
libRbt.so (2013.1, Build901 2013/11/27)

>  <Rbt.Parameter_File>
/export/apps/rDock/src/rDock_2013.1_src/data/scripts/dock_solv.prm

>  <Rbt.Receptor>
prm/blind_docking_20.prm

>  <SCORE>
-4.57485

>  <SCORE.INTER>
-1.78984

>  <SCORE.INTER.CONST>
1

>  <SCORE.INTER.POLAR>
0

>  <SCORE.INTER.ROT>
3

>  <SCORE.INTER.SOLV>
15.4918

>  <SCORE.INTER.VDW>
-11.9571

>  <SCORE.INTER.norm>
-0.0813564

>  <SCORE.INTRA>
-2.78501

>  <SCORE.INTRA.DIHEDRAL>
-6.51541

>  <SCORE.INTRA.DIHEDRAL.0>
7.18044

>  <SCORE.INTRA.POLAR>
0

>  <SCORE.INTRA.POLAR.0>
0

>  <SCORE.INTRA.REPUL>
0

>  <SCORE.INTRA.REPUL.0>
0

>  <SCORE.INTRA.SOLV>
1.01456

>  <SCORE.INTRA.SOLV.lig_0>
-72.0615

>  <SCORE.INTRA.VDW>
-0.0345852

>  <SCORE.INTRA.VDW.0>
-1.54792

>  <SCORE.INTRA.norm>
-0.126591

>  <SCORE.RESTR>
0

>  <SCORE.RESTR.CAVITY>
0

>  <SCORE.RESTR.norm>
0

>  <SCORE.SYSTEM>
0

>  <SCORE.SYSTEM.CONST>
0

>  <SCORE.SYSTEM.DIHEDRAL>
0

>  <SCORE.SYSTEM.SOLV>
0

>  <SCORE.SYSTEM.norm>
0

>  <SCORE.heavy>
22

>  <SCORE.norm>
-0.207948

>  <RMSD>
38.081

$$$$
lig.pdb
 OpenBabel11021811523D
libRbt.so/2013.1/901 2013/11/27
 22 23  0  0  0  0  0  0  0  0999 V2000
    5.2817   -0.4191   -9.1591 C   0  0  1  0  0  0  0  0  0  0  0  0
    7.0538   -0.2218   -7.4072 C   0  0  1  0  0  0  0  0  0  0  0  0
    6.3327    0.7953   -6.3419 C   0  0  1  0  0  0  0  0  0  0  0  0
    7.4976    1.5040   -5.4841 C   0  0  2  0  0  0  0  0  0  0  0  0
    4.3158   -1.4213   -9.9380 C   0  0  1  0  0  0  0  0  0  0  0  0
    5.1446   -2.3396  -10.9184 C   0  0  2  0  0  0  0  0  0  0  0  0
    5.8672   -1.3991  -12.0028 C   0  0  1  0  0  0  0  0  0  0  0  0
    6.9165   -0.4062  -11.2695 C   0  0  1  0  0  0  0  0  0  0  0  0
    7.6731    0.5367  -12.2458 C   0  0  0  0  0  0  0  0  0  0  0  0
    8.2655    0.3538   -4.6659 C   0  0  1  0  0  0  0  0  0  0  0  0
    8.9470   -0.6327   -5.7434 C   0  0  0  0  0  0  0  0  0  0  0  0
    7.8400   -1.3198   -6.6514 C   0  0  2  0  0  0  0  0  0  0  0  0
    6.6453   -2.1816  -12.9691 F   0  0  0  0  0  0  0  0  0  0  0  0
    3.5789   -2.2166   -8.8497 N   0  0  0  0  0  0  0  0  0  0  0  0
    8.5930   -0.1207  -13.1000 N   0  0  0  0  0  0  0  0  0  0  0  0
    9.3754    0.9447   -3.8533 N   0  0  0  0  0  0  0  0  0  0  0  0
    8.4453   -2.2041   -7.6428 N   0  0  0  0  0  0  0  0  0  0  0  0
    6.1222   -0.9235   -8.1991 O   0  0  0  0  0  0  0  0  0  0  0  0
    5.5970    1.8386   -7.1208 O   0  0  0  0  0  0  0  0  0  0  0  0
    6.8954    2.3656   -4.5783 O   0  0  0  0  0  0  0  0  0  0  0  0
    4.3849   -3.0510  -11.4679 O   0  0  0  0  0  0  0  0  0  0  0  0
    6.0964    0.4110  -10.2027 O   0  0  0  0  0  0  0  0  0  0  0  0
  1  5  1  0  0  0  0
  1 18  1  1  0  0  0
  2 18  1  1  0  0  0
  2  3  1  0  0  0  0
  2 12  1  0  0  0  0
  3 19  1  6  0  0  0
  3  4  1  0  0  0  0
  4 20  1  1  0  0  0
  4 10  1  0  0  0  0
  5  6  1  0  0  0  0
  5 14  1  1  0  0  0
  6 21  1  6  0  0  0
  7 13  1  6  0  0  0
  7  6  1  0  0  0  0
  8  9  1  6  0  0  0
  8  7  1  0  0  0  0
 10 16  1  1  0  0  0
 11 10  1  0  0  0  0
 12 17  1  6  0  0  0
 12 11  1  0  0  0  0
 15  9  1  0  0  0  0
 22  8  1  0  0  0  0
 22  1  1  0  0  0  0
M  END
>  <CHROM.1>
179.51701603,67.52986179,-68.66457566,6.65542122,-0.46723597,-8.69469712
1.84261217,-0.39625650,-1.80179890

>  <Name>
lig.pdb

>  <RI>
0

>  <Rbt.Current_Directory>
/home/itssahil/PROJECTS/Mol_Feturizer/New_Systems/rnas/5bxk

>  <Rbt.Executable>
rbdock ($Id: //depot/dev/client3/rdock/2013.1/src/exe/rbdock.cxx#4 $)

>  <Rbt.Library>
libRbt.so (2013.1, Build901 2013/11/27)

>  <Rbt.Parameter_File>
/export/apps/rDock/src/rDock_2013.1_src/data/scripts/dock_solv.prm

>  <Rbt.Receptor>
prm/blind_docking_20.prm

>  <SCORE>
-4.00463

>  <SCORE.INTER>
-0.344789

>  <SCORE.INTER.CONST>
1

>  <SCORE.INTER.POLAR>
0

>  <SCORE.INTER.ROT>
3

>  <SCORE.INTER.SOLV>
17.7692

>  <SCORE.INTER.VDW>
-11.7529

>  <SCORE.INTER.norm>
-0.0156722

>  <SCORE.INTRA>
-3.65986

>  <SCORE.INTRA.DIHEDRAL>
-6.5025

>  <SCORE.INTRA.DIHEDRAL.0>
7.18044

>  <SCORE.INTRA.POLAR>
0

>  <SCORE.INTRA.POLAR.0>
0

>  <SCORE.INTRA.REPUL>
0

>  <SCORE.INTRA.REPUL.0>
0

>  <SCORE.INTRA.SOLV>
-0.870429

>  <SCORE.INTRA.SOLV.lig_0>
-72.0615

>  <SCORE.INTRA.VDW>
0.0266058

>  <SCORE.INTRA.VDW.0>
-1.54792

>  <SCORE.INTRA.norm>
-0.166357

>  <SCORE.RESTR>
2.18586e-05

>  <SCORE.RESTR.CAVITY>
2.18586e-05

>  <SCORE.RESTR.norm>
9.93571e-07

>  <SCORE.SYSTEM>
0

>  <SCORE.SYSTEM.CONST>
0

>  <SCORE.SYSTEM.DIHEDRAL>
0

>  <SCORE.SYSTEM.SOLV>
0

>  <SCORE.SYSTEM.norm>
0

>  <SCORE.heavy>
22

>  <SCORE.norm>
-0.182028

>  <RMSD>
38.111

$$$$
lig.pdb
 OpenBabel11021811523D
libRbt.so/2013.1/901 2013/11/27
 22 23  0  0  0  0  0  0  0  0999 V2000
    8.1955    1.2179   -9.3070 C   0  0  1  0  0  0  0  0  0  0  0  0
    6.5883    2.1422   -7.6304 C   0  0  1  0  0  0  0  0  0  0  0  0
    6.1952    3.7328   -7.6987 C   0  0  1  0  0  0  0  0  0  0  0  0
    5.7703    4.1912   -6.2140 C   0  0  2  0  0  0  0  0  0  0  0  0
    8.4038    0.8392  -10.8423 C   0  0  1  0  0  0  0  0  0  0  0  0
    7.6730   -0.5180  -11.1820 C   0  0  2  0  0  0  0  0  0  0  0  0
    8.3268   -1.6821  -10.2878 C   0  0  1  0  0  0  0  0  0  0  0  0
    8.0804   -1.3825   -8.7148 C   0  0  1  0  0  0  0  0  0  0  0  0
    8.6714   -2.4663   -7.7711 C   0  0  0  0  0  0  0  0  0  0  0  0
    4.4643    3.3505   -5.8021 C   0  0  1  0  0  0  0  0  0  0  0  0
    4.8843    1.7948   -5.7603 C   0  0  0  0  0  0  0  0  0  0  0  0
    5.3618    1.3056   -7.1937 C   0  0  2  0  0  0  0  0  0  0  0  0
    7.7142   -2.9866  -10.5606 F   0  0  0  0  0  0  0  0  0  0  0  0
    7.8570    2.0318  -11.6414 N   0  0  0  0  0  0  0  0  0  0  0  0
    8.3729   -2.2743   -6.3992 N   0  0  0  0  0  0  0  0  0  0  0  0
    4.0213    3.7194   -4.4204 N   0  0  0  0  0  0  0  0  0  0  0  0
    5.7607   -0.0985   -7.1660 N   0  0  0  0  0  0  0  0  0  0  0  0
    6.9526    1.6214   -8.8887 O   0  0  0  0  0  0  0  0  0  0  0  0
    7.4129    4.4948   -8.1146 O   0  0  0  0  0  0  0  0  0  0  0  0
    5.4341    5.5365   -6.2634 O   0  0  0  0  0  0  0  0  0  0  0  0
    7.8641   -0.7503  -12.3199 O   0  0  0  0  0  0  0  0  0  0  0  0
    8.7013    0.0341   -8.4213 O   0  0  0  0  0  0  0  0  0  0  0  0
  1  5  1  0  0  0  0
  1 18  1  6  0  0  0
  2 18  1  6  0  0  0
  2  3  1  0  0  0  0
  2 12  1  0  0  0  0
  3 19  1  1  0  0  0
  3  4  1  0  0  0  0
  4 20  1  6  0  0  0
  4 10  1  0  0  0  0
  5  6  1  0  0  0  0
  5 14  1  6  0  0  0
  6 21  1  6  0  0  0
  7 13  1  6  0  0  0
  7  6  1  0  0  0  0
  8  9  1  1  0  0  0
  8  7  1  0  0  0  0
 10 16  1  1  0  0  0
 11 10  1  0  0  0  0
 12 17  1  1  0  0  0
 12 11  1  0  0  0  0
 15  9  1  0  0  0  0
 22  8  1  0  0  0  0
 22  1  1  0  0  0  0
M  END
>  <CHROM.1>
-172.07475685,110.41062312,-175.23751873,6.96513946,1.04687953,-8.34584146
-0.36321515,1.13172452,-0.51720231

>  <Name>
lig.pdb

>  <RI>
0

>  <Rbt.Current_Directory>
/home/itssahil/PROJECTS/Mol_Feturizer/New_Systems/rnas/5bxk

>  <Rbt.Executable>
rbdock ($Id: //depot/dev/client3/rdock/2013.1/src/exe/rbdock.cxx#4 $)

>  <Rbt.Library>
libRbt.so (2013.1, Build901 2013/11/27)

>  <Rbt.Parameter_File>
/export/apps/rDock/src/rDock_2013.1_src/data/scripts/dock_solv.prm

>  <Rbt.Receptor>
prm/blind_docking_20.prm

>  <SCORE>
-1.47152

>  <SCORE.INTER>
-1.89179

>  <SCORE.INTER.CONST>
1

>  <SCORE.INTER.POLAR>
0

>  <SCORE.INTER.ROT>
3

>  <SCORE.INTER.SOLV>
15.9203

>  <SCORE.INTER.VDW>
-12.168

>  <SCORE.INTER.norm>
-0.0859904

>  <SCORE.INTRA>
0.420273

>  <SCORE.INTRA.DIHEDRAL>
0.0872737

>  <SCORE.INTRA.DIHEDRAL.0>
7.18044

>  <SCORE.INTRA.POLAR>
0

>  <SCORE.INTRA.POLAR.0>
0

>  <SCORE.INTRA.REPUL>
0

>  <SCORE.INTRA.REPUL.0>
0

>  <SCORE.INTRA.SOLV>
1.65936

>  <SCORE.INTRA.SOLV.lig_0>
-72.0615

>  <SCORE.INTRA.VDW>
-0.453044

>  <SCORE.INTRA.VDW.0>
-1.54792

>  <SCORE.INTRA.norm>
0.0191033

>  <SCORE.RESTR>
0

>  <SCORE.RESTR.CAVITY>
0

>  <SCORE.RESTR.norm>
0

>  <SCORE.SYSTEM>
0

>  <SCORE.SYSTEM.CONST>
0

>  <SCORE.SYSTEM.DIHEDRAL>
0

>  <SCORE.SYSTEM.SOLV>
0

>  <SCORE.SYSTEM.norm>
0

>  <SCORE.heavy>
22

>  <SCORE.norm>
-0.0668871

>  <RMSD>
38.202

$$$$
lig.pdb
 OpenBabel11021811523D
libRbt.so/2013.1/901 2013/11/27
 22 23  0  0  0  0  0  0  0  0999 V2000
    7.3129   -0.6924   -9.9582 C   0  0  1  0  0  0  0  0  0  0  0  0
    6.1677    0.1878   -7.9180 C   0  0  1  0  0  0  0  0  0  0  0  0
    6.3532    1.8149   -8.0033 C   0  0  1  0  0  0  0  0  0  0  0  0
    6.2526    2.3935   -6.5032 C   0  0  2  0  0  0  0  0  0  0  0  0
    7.0983   -1.1721  -11.4641 C   0  0  1  0  0  0  0  0  0  0  0  0
    6.5220   -2.6411  -11.5006 C   0  0  2  0  0  0  0  0  0  0  0  0
    7.5928   -3.6218  -10.8122 C   0  0  1  0  0  0  0  0  0  0  0  0
    7.7956   -3.2221   -9.2553 C   0  0  1  0  0  0  0  0  0  0  0  0
    8.8099   -4.1278   -8.5035 C   0  0  0  0  0  0  0  0  0  0  0  0
    4.7778    2.0667   -5.9553 C   0  0  1  0  0  0  0  0  0  0  0  0
    4.6274    0.4627   -5.8998 C   0  0  0  0  0  0  0  0  0  0  0  0
    4.7708   -0.1632   -7.3523 C   0  0  2  0  0  0  0  0  0  0  0  0
    7.1395   -5.0168  -10.8247 F   0  0  0  0  0  0  0  0  0  0  0  0
    6.1526   -0.1403  -12.0972 N   0  0  0  0  0  0  0  0  0  0  0  0
    8.9162   -3.8616   -7.1157 N   0  0  0  0  0  0  0  0  0  0  0  0
    4.6197    2.5677   -4.5534 N   0  0  0  0  0  0  0  0  0  0  0  0
    4.6525   -1.6178   -7.3139 N   0  0  0  0  0  0  0  0  0  0  0  0
    6.2104   -0.4278   -9.1855 O   0  0  0  0  0  0  0  0  0  0  0  0
    7.7177    2.0993   -8.5452 O   0  0  0  0  0  0  0  0  0  0  0  0
    6.4067    3.7710   -6.5668 O   0  0  0  0  0  0  0  0  0  0  0  0
    6.3898   -2.9439  -12.6302 O   0  0  0  0  0  0  0  0  0  0  0  0
    8.2453   -1.7136   -9.2303 O   0  0  0  0  0  0  0  0  0  0  0  0
  1  5  1  0  0  0  0
  1 18  1  1  0  0  0
  2 18  1  6  0  0  0
  2  3  1  0  0  0  0
  2 12  1  0  0  0  0
  3 19  1  1  0  0  0
  3  4  1  0  0  0  0
  4 20  1  6  0  0  0
  4 10  1  0  0  0  0
  5  6  1  0  0  0  0
  5 14  1  1  0  0  0
  6 21  1  6  0  0  0
  7 13  1  1  0  0  0
  7  6  1  0  0  0  0
  8  9  1  6  0  0  0
  8  7  1  0  0  0  0
 10 16  1  1  0  0  0
 11 10  1  0  0  0  0
 12 17  1  1  0  0  0
 12 11  1  0  0  0  0
 15  9  1  0  0  0  0
 22  8  1  0  0  0  0
 22  1  1  0  0  0  0
M  END
>  <CHROM.1>
-169.71654001,76.95686798,-175.05895031,6.59552959,-0.77458618,-8.73568673
0.48148839,1.28070413,-1.40717109

>  <Name>
lig.pdb

>  <RI>
0

>  <Rbt.Current_Directory>
/home/itssahil/PROJECTS/Mol_Feturizer/New_Systems/rnas/5bxk

>  <Rbt.Executable>
rbdock ($Id: //depot/dev/client3/rdock/2013.1/src/exe/rbdock.cxx#4 $)

>  <Rbt.Library>
libRbt.so (2013.1, Build901 2013/11/27)

>  <Rbt.Parameter_File>
/export/apps/rDock/src/rDock_2013.1_src/data/scripts/dock_solv.prm

>  <Rbt.Receptor>
prm/blind_docking_20.prm

>  <SCORE>
-2.2114

>  <SCORE.INTER>
1.12558

>  <SCORE.INTER.CONST>
1

>  <SCORE.INTER.POLAR>
0

>  <SCORE.INTER.ROT>
3

>  <SCORE.INTER.SOLV>
14.7862

>  <SCORE.INTER.VDW>
-9.77834

>  <SCORE.INTER.norm>
0.0511628

>  <SCORE.INTRA>
-3.33699

>  <SCORE.INTRA.DIHEDRAL>
-5.13772

>  <SCORE.INTRA.DIHEDRAL.0>
7.18044

>  <SCORE.INTRA.POLAR>
0

>  <SCORE.INTRA.POLAR.0>
0

>  <SCORE.INTRA.REPUL>
0

>  <SCORE.INTRA.REPUL.0>
0

>  <SCORE.INTRA.SOLV>
-1.38389

>  <SCORE.INTRA.SOLV.lig_0>
-72.0615

>  <SCORE.INTRA.VDW>
-0.0761852

>  <SCORE.INTRA.VDW.0>
-1.54792

>  <SCORE.INTRA.norm>
-0.151681

>  <SCORE.RESTR>
0

>  <SCORE.RESTR.CAVITY>
0

>  <SCORE.RESTR.norm>
0

>  <SCORE.SYSTEM>
0

>  <SCORE.SYSTEM.CONST>
0

>  <SCORE.SYSTEM.DIHEDRAL>
0

>  <SCORE.SYSTEM.SOLV>
0

>  <SCORE.SYSTEM.norm>
0

>  <SCORE.heavy>
22

>  <SCORE.norm>
-0.100518

>  <RMSD>
38.210

$$$$
lig.pdb
 OpenBabel11021811523D
libRbt.so/2013.1/901 2013/11/27
 22 23  0  0  0  0  0  0  0  0999 V2000
    8.1959   -1.0977  -10.3643 C   0  0  1  0  0  0  0  0  0  0  0  0
    7.4259   -0.3792   -8.0973 C   0  0  1  0  0  0  0  0  0  0  0  0
    8.8642   -0.5500   -7.3284 C   0  0  1  0  0  0  0  0  0  0  0  0
    8.5598   -0.6641   -5.7506 C   0  0  2  0  0  0  0  0  0  0  0  0
    8.0844   -0.8157  -11.9302 C   0  0  1  0  0  0  0  0  0  0  0  0
    6.6197   -1.1055  -12.4422 C   0  0  2  0  0  0  0  0  0  0  0  0
    6.2939   -2.6588  -12.1904 C   0  0  1  0  0  0  0  0  0  0  0  0
    6.3233   -2.9852  -10.6038 C   0  0  1  0  0  0  0  0  0  0  0  0
    6.0073   -4.4681  -10.2638 C   0  0  0  0  0  0  0  0  0  0  0  0
    7.8834    0.7176   -5.2862 C   0  0  1  0  0  0  0  0  0  0  0  0
    6.4830    0.8581   -6.0720 C   0  0  0  0  0  0  0  0  0  0  0  0
    6.7254    0.9229   -7.6401 C   0  0  2  0  0  0  0  0  0  0  0  0
    4.9513   -3.0162  -12.6607 F   0  0  0  0  0  0  0  0  0  0  0  0
    8.5075    0.6489  -12.1188 N   0  0  0  0  0  0  0  0  0  0  0  0
    6.0522   -4.7743   -8.8810 N   0  0  0  0  0  0  0  0  0  0  0  0
    7.5605    0.6745   -3.8250 N   0  0  0  0  0  0  0  0  0  0  0  0
    5.4631    1.0340   -8.3650 N   0  0  0  0  0  0  0  0  0  0  0  0
    7.5724   -0.2410   -9.4925 O   0  0  0  0  0  0  0  0  0  0  0  0
    9.4931   -1.8233   -7.7970 O   0  0  0  0  0  0  0  0  0  0  0  0
    9.7728   -0.8071   -5.0920 O   0  0  0  0  0  0  0  0  0  0  0  0
    6.5970   -0.8876  -13.5986 O   0  0  0  0  0  0  0  0  0  0  0  0
    7.7491   -2.5684  -10.0824 O   0  0  0  0  0  0  0  0  0  0  0  0
  1  5  1  0  0  0  0
  1 18  1  1  0  0  0
  2 18  1  6  0  0  0
  2  3  1  0  0  0  0
  2 12  1  0  0  0  0
  3 19  1  6  0  0  0
  3  4  1  0  0  0  0
  4 20  1  1  0  0  0
  4 10  1  0  0  0  0
  5  6  1  0  0  0  0
  5 14  1  1  0  0  0
  6 21  1  6  0  0  0
  7 13  1  1  0  0  0
  7  6  1  0  0  0  0
  8  9  1  6  0  0  0
  8  7  1  0  0  0  0
 10 16  1  1  0  0  0
 11 10  1  0  0  0  0
 12 17  1  6  0  0  0
 12 11  1  0  0  0  0
 15  9  1  0  0  0  0
 22  8  1  0  0  0  0
 22  1  1  0  0  0  0
M  END
>  <CHROM.1>
172.75858835,56.57109972,178.95440695,7.31218850,-1.13384491,-9.14398430
-2.63360984,1.29584362,2.27731703

>  <Name>
lig.pdb

>  <RI>
0

>  <Rbt.Current_Directory>
/home/itssahil/PROJECTS/Mol_Feturizer/New_Systems/rnas/5bxk

>  <Rbt.Executable>
rbdock ($Id: //depot/dev/client3/rdock/2013.1/src/exe/rbdock.cxx#4 $)

>  <Rbt.Library>
libRbt.so (2013.1, Build901 2013/11/27)

>  <Rbt.Parameter_File>
/export/apps/rDock/src/rDock_2013.1_src/data/scripts/dock_solv.prm

>  <Rbt.Receptor>
prm/blind_docking_20.prm

>  <SCORE>
-2.37513

>  <SCORE.INTER>
1.79035

>  <SCORE.INTER.CONST>
1

>  <SCORE.INTER.POLAR>
0

>  <SCORE.INTER.ROT>
3

>  <SCORE.INTER.SOLV>
14.4679

>  <SCORE.INTER.VDW>
-9.22907

>  <SCORE.INTER.norm>
0.0813797

>  <SCORE.INTRA>
-4.16567

>  <SCORE.INTRA.DIHEDRAL>
-6.73728

>  <SCORE.INTRA.DIHEDRAL.0>
7.18044

>  <SCORE.INTRA.POLAR>
0

>  <SCORE.INTRA.POLAR.0>
0

>  <SCORE.INTRA.REPUL>
0

>  <SCORE.INTRA.REPUL.0>
0

>  <SCORE.INTRA.SOLV>
-1.77225

>  <SCORE.INTRA.SOLV.lig_0>
-72.0615

>  <SCORE.INTRA.VDW>
0.0890938

>  <SCORE.INTRA.VDW.0>
-1.54792

>  <SCORE.INTRA.norm>
-0.189349

>  <SCORE.RESTR>
0.000182087

>  <SCORE.RESTR.CAVITY>
0.000182087

>  <SCORE.RESTR.norm>
8.27666e-06

>  <SCORE.SYSTEM>
0

>  <SCORE.SYSTEM.CONST>
0

>  <SCORE.SYSTEM.DIHEDRAL>
0

>  <SCORE.SYSTEM.SOLV>
0

>  <SCORE.SYSTEM.norm>
0

>  <SCORE.heavy>
22

>  <SCORE.norm>
-0.107961

>  <RMSD>
38.287

$$$$
lig.pdb
 OpenBabel11021811523D
libRbt.so/2013.1/901 2013/11/27
 22 23  0  0  0  0  0  0  0  0999 V2000
    4.4523   -0.5133   -8.0105 C   0  0  1  0  0  0  0  0  0  0  0  0
    5.7681    1.1230   -6.6542 C   0  0  1  0  0  0  0  0  0  0  0  0
    6.1316    2.1351   -7.8923 C   0  0  1  0  0  0  0  0  0  0  0  0
    6.4805    3.5733   -7.2560 C   0  0  2  0  0  0  0  0  0  0  0  0
    4.0809   -2.0540   -8.1903 C   0  0  1  0  0  0  0  0  0  0  0  0
    5.2581   -2.8280   -8.9019 C   0  0  2  0  0  0  0  0  0  0  0  0
    5.4715   -2.1925  -10.3623 C   0  0  1  0  0  0  0  0  0  0  0  0
    5.9217   -0.6413  -10.2356 C   0  0  1  0  0  0  0  0  0  0  0  0
    6.1624    0.0545  -11.6039 C   0  0  0  0  0  0  0  0  0  0  0  0
    5.1585    4.1102   -6.5170 C   0  0  1  0  0  0  0  0  0  0  0  0
    4.8242    3.0846   -5.3192 C   0  0  0  0  0  0  0  0  0  0  0  0
    4.5222    1.6346   -5.8921 C   0  0  2  0  0  0  0  0  0  0  0  0
    6.5401   -2.8735  -11.1012 F   0  0  0  0  0  0  0  0  0  0  0  0
    3.7866   -2.5773   -6.7764 N   0  0  0  0  0  0  0  0  0  0  0  0
    7.2413   -0.4802  -12.3511 N   0  0  0  0  0  0  0  0  0  0  0  0
    5.4179    5.4441   -5.8886 N   0  0  0  0  0  0  0  0  0  0  0  0
    4.2335    0.6916   -4.8157 N   0  0  0  0  0  0  0  0  0  0  0  0
    5.4167   -0.1682   -7.0976 O   0  0  0  0  0  0  0  0  0  0  0  0
    7.3437    1.6023   -8.5874 O   0  0  0  0  0  0  0  0  0  0  0  0
    6.7875    4.4369   -8.2979 O   0  0  0  0  0  0  0  0  0  0  0  0
    4.9290   -3.9526   -9.0134 O   0  0  0  0  0  0  0  0  0  0  0  0
    4.7983    0.0899   -9.4099 O   0  0  0  0  0  0  0  0  0  0  0  0
  1  5  1  0  0  0  0
  1 18  1  1  0  0  0
  2 18  1  6  0  0  0
  2  3  1  0  0  0  0
  2 12  1  0  0  0  0
  3 19  1  1  0  0  0
  3  4  1  0  0  0  0
  4 20  1  6  0  0  0
  4 10  1  0  0  0  0
  5  6  1  0  0  0  0
  5 14  1  1  0  0  0
  6 21  1  6  0  0  0
  7 13  1  1  0  0  0
  7  6  1  0  0  0  0
  8  9  1  6  0  0  0
  8  7  1  0  0  0  0
 10 16  1  1  0  0  0
 11 10  1  0  0  0  0
 12 17  1  1  0  0  0
 12 11  1  0  0  0  0
 15  9  1  0  0  0  0
 22  8  1  0  0  0  0
 22  1  1  0  0  0  0
M  END
>  <CHROM.1>
-170.73390210,-54.12655244,-64.60297794,5.52116759,0.38715450,-8.25170507
1.56284116,-1.05066206,-2.59529857

>  <Name>
lig.pdb

>  <RI>
0

>  <Rbt.Current_Directory>
/home/itssahil/PROJECTS/Mol_Feturizer/New_Systems/rnas/5bxk

>  <Rbt.Executable>
rbdock ($Id: //depot/dev/client3/rdock/2013.1/src/exe/rbdock.cxx#4 $)

>  <Rbt.Library>
libRbt.so (2013.1, Build901 2013/11/27)

>  <Rbt.Parameter_File>
/export/apps/rDock/src/rDock_2013.1_src/data/scripts/dock_solv.prm

>  <Rbt.Receptor>
prm/blind_docking_20.prm

>  <SCORE>
-6.28317

>  <SCORE.INTER>
-3.54532

>  <SCORE.INTER.CONST>
1

>  <SCORE.INTER.POLAR>
0

>  <SCORE.INTER.ROT>
3

>  <SCORE.INTER.SOLV>
13.2333

>  <SCORE.INTER.VDW>
-12.3746

>  <SCORE.INTER.norm>
-0.161151

>  <SCORE.INTRA>
-2.73785

>  <SCORE.INTRA.DIHEDRAL>
-6.40084

>  <SCORE.INTRA.DIHEDRAL.0>
7.18044

>  <SCORE.INTRA.POLAR>
0

>  <SCORE.INTRA.POLAR.0>
0

>  <SCORE.INTRA.REPUL>
0

>  <SCORE.INTRA.REPUL.0>
0

>  <SCORE.INTRA.SOLV>
0.93842

>  <SCORE.INTRA.SOLV.lig_0>
-72.0615

>  <SCORE.INTRA.VDW>
-0.0066372

>  <SCORE.INTRA.VDW.0>
-1.54792

>  <SCORE.INTRA.norm>
-0.124448

>  <SCORE.RESTR>
0

>  <SCORE.RESTR.CAVITY>
0

>  <SCORE.RESTR.norm>
0

>  <SCORE.SYSTEM>
0

>  <SCORE.SYSTEM.CONST>
0

>  <SCORE.SYSTEM.DIHEDRAL>
0

>  <SCORE.SYSTEM.SOLV>
0

>  <SCORE.SYSTEM.norm>
0

>  <SCORE.heavy>
22

>  <SCORE.norm>
-0.285599

>  <RMSD>
38.300

$$$$
lig.pdb
 OpenBabel11021811523D
libRbt.so/2013.1/901 2013/11/27
 22 23  0  0  0  0  0  0  0  0999 V2000
    8.0629   -2.4845   -8.2537 C   0  0  1  0  0  0  0  0  0  0  0  0
    7.3883   -4.4567   -9.6335 C   0  0  1  0  0  0  0  0  0  0  0  0
    8.6263   -5.4990   -9.3685 C   0  0  1  0  0  0  0  0  0  0  0  0
    8.6735   -6.5217  -10.6122 C   0  0  2  0  0  0  0  0  0  0  0  0
    7.7309   -1.6235   -6.9527 C   0  0  1  0  0  0  0  0  0  0  0  0
    6.4479   -0.7350   -7.1892 C   0  0  2  0  0  0  0  0  0  0  0  0
    6.7519    0.2815   -8.3962 C   0  0  1  0  0  0  0  0  0  0  0  0
    7.0266   -0.5424   -9.7639 C   0  0  1  0  0  0  0  0  0  0  0  0
    7.3200    0.3632  -10.9920 C   0  0  0  0  0  0  0  0  0  0  0  0
    7.2932   -7.3446  -10.6160 C   0  0  1  0  0  0  0  0  0  0  0  0
    6.1013   -6.2878  -10.8631 C   0  0  0  0  0  0  0  0  0  0  0  0
    6.0449   -5.2230   -9.6863 C   0  0  2  0  0  0  0  0  0  0  0  0
    5.6103    1.1619   -8.6666 F   0  0  0  0  0  0  0  0  0  0  0  0
    7.5550   -2.6413   -5.8157 N   0  0  0  0  0  0  0  0  0  0  0  0
    8.4085    1.2534  -10.8164 N   0  0  0  0  0  0  0  0  0  0  0  0
    7.2645   -8.3090  -11.7607 N   0  0  0  0  0  0  0  0  0  0  0  0
    4.9792   -4.2497   -9.9062 N   0  0  0  0  0  0  0  0  0  0  0  0
    7.2331   -3.5252   -8.5868 O   0  0  0  0  0  0  0  0  0  0  0  0
    9.8974   -4.7120   -9.3358 O   0  0  0  0  0  0  0  0  0  0  0  0
    9.7179   -7.4090  -10.3947 O   0  0  0  0  0  0  0  0  0  0  0  0
    6.2541   -0.1199   -6.2046 O   0  0  0  0  0  0  0  0  0  0  0  0
    8.2266   -1.5185   -9.4710 O   0  0  0  0  0  0  0  0  0  0  0  0
  1  5  1  0  0  0  0
  1 18  1  6  0  0  0
  2 18  1  1  0  0  0
  2  3  1  0  0  0  0
  2 12  1  0  0  0  0
  3 19  1  6  0  0  0
  3  4  1  0  0  0  0
  4 20  1  1  0  0  0
  4 10  1  0  0  0  0
  5  6  1  0  0  0  0
  5 14  1  1  0  0  0
  6 21  1  1  0  0  0
  7 13  1  6  0  0  0
  7  6  1  0  0  0  0
  8  9  1  6  0  0  0
  8  7  1  0  0  0  0
 10 16  1  6  0  0  0
 11 10  1  0  0  0  0
 12 17  1  6  0  0  0
 12 11  1  0  0  0  0
 15  9  1  0  0  0  0
 22  8  1  0  0  0  0
 22  1  1  0  0  0  0
M  END
>  <CHROM.1>
-175.57116740,69.99606131,56.47302022,7.39049899,-3.12037393,-9.22337211
2.97608732,1.42441540,-1.10621727

>  <Name>
lig.pdb

>  <RI>
0

>  <Rbt.Current_Directory>
/home/itssahil/PROJECTS/Mol_Feturizer/New_Systems/rnas/5bxk

>  <Rbt.Executable>
rbdock ($Id: //depot/dev/client3/rdock/2013.1/src/exe/rbdock.cxx#4 $)

>  <Rbt.Library>
libRbt.so (2013.1, Build901 2013/11/27)

>  <Rbt.Parameter_File>
/export/apps/rDock/src/rDock_2013.1_src/data/scripts/dock_solv.prm

>  <Rbt.Receptor>
prm/blind_docking_40.prm

>  <SCORE>
-4.9009

>  <SCORE.INTER>
-1.38549

>  <SCORE.INTER.CONST>
1

>  <SCORE.INTER.POLAR>
0

>  <SCORE.INTER.ROT>
3

>  <SCORE.INTER.SOLV>
13.3498

>  <SCORE.INTER.VDW>
-10.9736

>  <SCORE.INTER.norm>
-0.062977

>  <SCORE.INTRA>
-3.5154

>  <SCORE.INTRA.DIHEDRAL>
-6.42618

>  <SCORE.INTRA.DIHEDRAL.0>
7.18044

>  <SCORE.INTRA.POLAR>
0

>  <SCORE.INTRA.POLAR.0>
0

>  <SCORE.INTRA.REPUL>
0

>  <SCORE.INTRA.REPUL.0>
0

>  <SCORE.INTRA.SOLV>
-0.536613

>  <SCORE.INTRA.SOLV.lig_0>
-72.0615

>  <SCORE.INTRA.VDW>
-0.034006

>  <SCORE.INTRA.VDW.0>
-1.54792

>  <SCORE.INTRA.norm>
-0.159791

>  <SCORE.RESTR>
0

>  <SCORE.RESTR.CAVITY>
0

>  <SCORE.RESTR.norm>
0

>  <SCORE.SYSTEM>
0

>  <SCORE.SYSTEM.CONST>
0

>  <SCORE.SYSTEM.DIHEDRAL>
0

>  <SCORE.SYSTEM.SOLV>
0

>  <SCORE.SYSTEM.norm>
0

>  <SCORE.heavy>
22

>  <SCORE.norm>
-0.222768

>  <RMSD>
38.384

$$$$
lig.pdb
 OpenBabel11021811523D
libRbt.so/2013.1/901 2013/11/27
 22 23  0  0  0  0  0  0  0  0999 V2000
    5.6795   -0.4190   -9.6450 C   0  0  1  0  0  0  0  0  0  0  0  0
    7.3533   -0.2588   -7.7953 C   0  0  1  0  0  0  0  0  0  0  0  0
    6.4762    0.6323   -6.7341 C   0  0  1  0  0  0  0  0  0  0  0  0
    7.5118    1.3374   -5.7215 C   0  0  2  0  0  0  0  0  0  0  0  0
    4.8778   -1.4102  -10.6036 C   0  0  1  0  0  0  0  0  0  0  0  0
    5.8514   -2.0717  -11.6552 C   0  0  2  0  0  0  0  0  0  0  0  0
    6.4855   -0.9056  -12.5610 C   0  0  1  0  0  0  0  0  0  0  0  0
    7.3727    0.0931  -11.6443 C   0  0  1  0  0  0  0  0  0  0  0  0
    8.0365    1.2503  -12.4410 C   0  0  0  0  0  0  0  0  0  0  0  0
    8.2728    0.1728   -4.9174 C   0  0  1  0  0  0  0  0  0  0  0  0
    9.1097   -0.6891   -5.9923 C   0  0  0  0  0  0  0  0  0  0  0  0
    8.1349   -1.3656   -7.0478 C   0  0  2  0  0  0  0  0  0  0  0  0
    7.3909   -1.4420  -13.5828 F   0  0  0  0  0  0  0  0  0  0  0  0
    4.2107   -2.4359   -9.6749 N   0  0  0  0  0  0  0  0  0  0  0  0
    8.8372    2.1174  -11.6568 N   0  0  0  0  0  0  0  0  0  0  0  0
    9.2652    0.7610   -3.9632 N   0  0  0  0  0  0  0  0  0  0  0  0
    8.8819   -2.1365   -8.0372 N   0  0  0  0  0  0  0  0  0  0  0  0
    6.5432   -0.9489   -8.7199 O   0  0  0  0  0  0  0  0  0  0  0  0
    5.7503    1.6893   -7.5036 O   0  0  0  0  0  0  0  0  0  0  0  0
    6.7771    2.0924   -4.8183 O   0  0  0  0  0  0  0  0  0  0  0  0
    5.2087   -2.7848  -12.3363 O   0  0  0  0  0  0  0  0  0  0  0  0
    6.4177    0.6442  -10.5206 O   0  0  0  0  0  0  0  0  0  0  0  0
  1  5  1  0  0  0  0
  1 18  1  6  0  0  0
  2 18  1  6  0  0  0
  2  3  1  0  0  0  0
  2 12  1  0  0  0  0
  3 19  1  6  0  0  0
  3  4  1  0  0  0  0
  4 20  1  1  0  0  0
  4 10  1  0  0  0  0
  5  6  1  0  0  0  0
  5 14  1  1  0  0  0
  6 21  1  6  0  0  0
  7 13  1  6  0  0  0
  7  6  1  0  0  0  0
  8  9  1  6  0  0  0
  8  7  1  0  0  0  0
 10 16  1  1  0  0  0
 11 10  1  0  0  0  0
 12 17  1  6  0  0  0
 12 11  1  0  0  0  0
 15  9  1  0  0  0  0
 22  8  1  0  0  0  0
 22  1  1  0  0  0  0
M  END
>  <CHROM.1>
179.20790511,61.66270049,-178.82909178,7.00522324,-0.27706124,-9.05218551
1.90266670,-0.88310800,-1.56207978

>  <Name>
lig.pdb

>  <RI>
0

>  <Rbt.Current_Directory>
/home/itssahil/PROJECTS/Mol_Feturizer/New_Systems/rnas/5bxk

>  <Rbt.Executable>
rbdock ($Id: //depot/dev/client3/rdock/2013.1/src/exe/rbdock.cxx#4 $)

>  <Rbt.Library>
libRbt.so (2013.1, Build901 2013/11/27)

>  <Rbt.Parameter_File>
/export/apps/rDock/src/rDock_2013.1_src/data/scripts/dock_solv.prm

>  <Rbt.Receptor>
prm/blind_docking_20.prm

>  <SCORE>
-4.81992

>  <SCORE.INTER>
-0.471658

>  <SCORE.INTER.CONST>
1

>  <SCORE.INTER.POLAR>
0

>  <SCORE.INTER.ROT>
3

>  <SCORE.INTER.SOLV>
16.7089

>  <SCORE.INTER.VDW>
-11.4841

>  <SCORE.INTER.norm>
-0.021439

>  <SCORE.INTRA>
-4.34826

>  <SCORE.INTRA.DIHEDRAL>
-7.02321

>  <SCORE.INTRA.DIHEDRAL.0>
7.18044

>  <SCORE.INTRA.POLAR>
0

>  <SCORE.INTRA.POLAR.0>
0

>  <SCORE.INTRA.REPUL>
0

>  <SCORE.INTRA.REPUL.0>
0

>  <SCORE.INTRA.SOLV>
-1.79523

>  <SCORE.INTRA.SOLV.lig_0>
-72.0615

>  <SCORE.INTRA.VDW>
0.0609524

>  <SCORE.INTRA.VDW.0>
-1.54792

>  <SCORE.INTRA.norm>
-0.197648

>  <SCORE.RESTR>
0

>  <SCORE.RESTR.CAVITY>
0

>  <SCORE.RESTR.norm>
0

>  <SCORE.SYSTEM>
0

>  <SCORE.SYSTEM.CONST>
0

>  <SCORE.SYSTEM.DIHEDRAL>
0

>  <SCORE.SYSTEM.SOLV>
0

>  <SCORE.SYSTEM.norm>
0

>  <SCORE.heavy>
22

>  <SCORE.norm>
-0.219087

>  <RMSD>
38.416

$$$$
lig.pdb
 OpenBabel11021811523D
libRbt.so/2013.1/901 2013/11/27
 22 23  0  0  0  0  0  0  0  0999 V2000
    5.6417   -0.3017   -9.7119 C   0  0  1  0  0  0  0  0  0  0  0  0
    7.2716   -0.1649   -7.8216 C   0  0  1  0  0  0  0  0  0  0  0  0
    6.4169    0.7107   -6.7298 C   0  0  1  0  0  0  0  0  0  0  0  0
    7.4734    1.4028   -5.7299 C   0  0  2  0  0  0  0  0  0  0  0  0
    4.7782   -1.2807  -10.6285 C   0  0  1  0  0  0  0  0  0  0  0  0
    5.7125   -2.0811  -11.6173 C   0  0  2  0  0  0  0  0  0  0  0  0
    6.4563   -1.0270  -12.5754 C   0  0  1  0  0  0  0  0  0  0  0  0
    7.4063   -0.0501  -11.6991 C   0  0  1  0  0  0  0  0  0  0  0  0
    8.1769    0.9994  -12.5473 C   0  0  0  0  0  0  0  0  0  0  0  0
    8.2521    0.2280   -4.9584 C   0  0  1  0  0  0  0  0  0  0  0  0
    9.0664   -0.6183   -6.0626 C   0  0  0  0  0  0  0  0  0  0  0  0
    8.0698   -1.2812   -7.1062 C   0  0  2  0  0  0  0  0  0  0  0  0
    7.3325   -1.6956  -13.5433 F   0  0  0  0  0  0  0  0  0  0  0  0
    4.0127   -2.1911   -9.6565 N   0  0  0  0  0  0  0  0  0  0  0  0
    9.0591    1.8209  -11.8022 N   0  0  0  0  0  0  0  0  0  0  0  0
    9.2643    0.8040   -4.0176 N   0  0  0  0  0  0  0  0  0  0  0  0
    8.7959   -2.0378   -8.1218 N   0  0  0  0  0  0  0  0  0  0  0  0
    6.4424   -0.8430   -8.7381 O   0  0  0  0  0  0  0  0  0  0  0  0
    5.6740    1.7775   -7.4691 O   0  0  0  0  0  0  0  0  0  0  0  0
    6.7576    2.1447   -4.8010 O   0  0  0  0  0  0  0  0  0  0  0  0
    5.0255   -2.7796  -12.2697 O   0  0  0  0  0  0  0  0  0  0  0  0
    6.4802    0.6434  -10.6315 O   0  0  0  0  0  0  0  0  0  0  0  0
  1  5  1  0  0  0  0
  1 18  1  1  0  0  0
  2 18  1  6  0  0  0
  2  3  1  0  0  0  0
  2 12  1  0  0  0  0
  3 19  1  6  0  0  0
  3  4  1  0  0  0  0
  4 20  1  1  0  0  0
  4 10  1  0  0  0  0
  5  6  1  0  0  0  0
  5 14  1  1  0  0  0
  6 21  1  6  0  0  0
  7 13  1  6  0  0  0
  7  6  1  0  0  0  0
  8  9  1  6  0  0  0
  8  7  1  0  0  0  0
 10 16  1  1  0  0  0
 11 10  1  0  0  0  0
 12 17  1  6  0  0  0
 12 11  1  0  0  0  0
 15  9  1  0  0  0  0
 22  8  1  0  0  0  0
 22  1  1  0  0  0  0
M  END
>  <CHROM.1>
-179.53432447,67.57353822,-177.23001321,6.96467506,-0.26912546,-9.08065074
1.82366730,-0.63273894,-1.69412833

>  <Name>
lig.pdb

>  <RI>
0

>  <Rbt.Current_Directory>
/home/itssahil/PROJECTS/Mol_Feturizer/New_Systems/rnas/5bxk

>  <Rbt.Executable>
rbdock ($Id: //depot/dev/client3/rdock/2013.1/src/exe/rbdock.cxx#4 $)

>  <Rbt.Library>
libRbt.so (2013.1, Build901 2013/11/27)

>  <Rbt.Parameter_File>
/export/apps/rDock/src/rDock_2013.1_src/data/scripts/dock_solv.prm

>  <Rbt.Receptor>
prm/blind_docking_20.prm

>  <SCORE>
-4.88279

>  <SCORE.INTER>
-0.683358

>  <SCORE.INTER.CONST>
1

>  <SCORE.INTER.POLAR>
0

>  <SCORE.INTER.ROT>
3

>  <SCORE.INTER.SOLV>
17.1449

>  <SCORE.INTER.VDW>
-11.7705

>  <SCORE.INTER.norm>
-0.0310617

>  <SCORE.INTRA>
-4.19943

>  <SCORE.INTRA.DIHEDRAL>
-6.73635

>  <SCORE.INTRA.DIHEDRAL.0>
7.18044

>  <SCORE.INTRA.POLAR>
0

>  <SCORE.INTRA.POLAR.0>
0

>  <SCORE.INTRA.REPUL>
0

>  <SCORE.INTRA.REPUL.0>
0

>  <SCORE.INTRA.SOLV>
-1.72285

>  <SCORE.INTRA.SOLV.lig_0>
-72.0615

>  <SCORE.INTRA.VDW>
0.0301665

>  <SCORE.INTRA.VDW.0>
-1.54792

>  <SCORE.INTRA.norm>
-0.190883

>  <SCORE.RESTR>
0

>  <SCORE.RESTR.CAVITY>
0

>  <SCORE.RESTR.norm>
0

>  <SCORE.SYSTEM>
0

>  <SCORE.SYSTEM.CONST>
0

>  <SCORE.SYSTEM.DIHEDRAL>
0

>  <SCORE.SYSTEM.SOLV>
0

>  <SCORE.SYSTEM.norm>
0

>  <SCORE.heavy>
22

>  <SCORE.norm>
-0.221945

>  <RMSD>
38.451

$$$$
lig.pdb
 OpenBabel11021811523D
libRbt.so/2013.1/901 2013/11/27
 22 23  0  0  0  0  0  0  0  0999 V2000
    3.4202   -1.7246   -8.0849 C   0  0  1  0  0  0  0  0  0  0  0  0
    5.3588   -0.4796   -9.0547 C   0  0  1  0  0  0  0  0  0  0  0  0
    5.3474   -0.3737  -10.6911 C   0  0  1  0  0  0  0  0  0  0  0  0
    6.8755   -0.2204  -11.1774 C   0  0  2  0  0  0  0  0  0  0  0  0
    3.7451   -2.2899   -6.6292 C   0  0  1  0  0  0  0  0  0  0  0  0
    5.1987   -2.9033   -6.5850 C   0  0  2  0  0  0  0  0  0  0  0  0
    5.2622   -4.1293   -7.6220 C   0  0  1  0  0  0  0  0  0  0  0  0
    5.0091   -3.5973   -9.1313 C   0  0  1  0  0  0  0  0  0  0  0  0
    5.0635   -4.7172  -10.2071 C   0  0  0  0  0  0  0  0  0  0  0  0
    7.4414    1.1561  -10.5717 C   0  0  1  0  0  0  0  0  0  0  0  0
    7.4233    1.0209   -8.9655 C   0  0  0  0  0  0  0  0  0  0  0  0
    5.9395    0.8156   -8.4381 C   0  0  2  0  0  0  0  0  0  0  0  0
    6.5813   -4.7707   -7.6260 F   0  0  0  0  0  0  0  0  0  0  0  0
    3.5659   -1.1009   -5.6733 N   0  0  0  0  0  0  0  0  0  0  0  0
    6.3287   -5.3419  -10.3388 N   0  0  0  0  0  0  0  0  0  0  0  0
    8.8691    1.3556  -10.9759 N   0  0  0  0  0  0  0  0  0  0  0  0
    5.9107    0.6754   -6.9852 N   0  0  0  0  0  0  0  0  0  0  0  0
    4.0625   -0.5897   -8.5116 O   0  0  0  0  0  0  0  0  0  0  0  0
    4.7881   -1.6493  -11.2353 O   0  0  0  0  0  0  0  0  0  0  0  0
    6.8746   -0.1282  -12.5620 O   0  0  0  0  0  0  0  0  0  0  0  0
    5.3815   -3.3083   -5.4951 O   0  0  0  0  0  0  0  0  0  0  0  0
    3.6114   -2.8730   -9.1274 O   0  0  0  0  0  0  0  0  0  0  0  0
  1  5  1  0  0  0  0
  1 18  1  6  0  0  0
  2 18  1  1  0  0  0
  2  3  1  0  0  0  0
  2 12  1  0  0  0  0
  3 19  1  6  0  0  0
  3  4  1  0  0  0  0
  4 20  1  6  0  0  0
  4 10  1  0  0  0  0
  5  6  1  0  0  0  0
  5 14  1  1  0  0  0
  6 21  1  1  0  0  0
  7 13  1  6  0  0  0
  7  6  1  0  0  0  0
  8  9  1  6  0  0  0
  8  7  1  0  0  0  0
 10 16  1  6  0  0  0
 11 10  1  0  0  0  0
 12 17  1  1  0  0  0
 12 11  1  0  0  0  0
 15  9  1  0  0  0  0
 22  8  1  0  0  0  0
 22  1  1  0  0  0  0
M  END
>  <CHROM.1>
81.33529307,99.87411740,-64.09701447,5.55136884,-1.65996639,-8.89347842,2.73283247
-1.13908088,-2.71289539

>  <Name>
lig.pdb

>  <RI>
0

>  <Rbt.Current_Directory>
/home/itssahil/PROJECTS/Mol_Feturizer/New_Systems/rnas/5bxk

>  <Rbt.Executable>
rbdock ($Id: //depot/dev/client3/rdock/2013.1/src/exe/rbdock.cxx#4 $)

>  <Rbt.Library>
libRbt.so (2013.1, Build901 2013/11/27)

>  <Rbt.Parameter_File>
/export/apps/rDock/src/rDock_2013.1_src/data/scripts/dock_solv.prm

>  <Rbt.Receptor>
prm/blind_docking_20.prm

>  <SCORE>
-4.66879

>  <SCORE.INTER>
-5.61092

>  <SCORE.INTER.CONST>
1

>  <SCORE.INTER.POLAR>
0

>  <SCORE.INTER.ROT>
3

>  <SCORE.INTER.SOLV>
11.8047

>  <SCORE.INTER.VDW>
-13.2755

>  <SCORE.INTER.norm>
-0.255042

>  <SCORE.INTRA>
0.942126

>  <SCORE.INTRA.DIHEDRAL>
0.340669

>  <SCORE.INTRA.DIHEDRAL.0>
7.18044

>  <SCORE.INTRA.POLAR>
0

>  <SCORE.INTRA.POLAR.0>
0

>  <SCORE.INTRA.REPUL>
0

>  <SCORE.INTRA.REPUL.0>
0

>  <SCORE.INTRA.SOLV>
3.24042

>  <SCORE.INTRA.SOLV.lig_0>
-72.0615

>  <SCORE.INTRA.VDW>
-0.848418

>  <SCORE.INTRA.VDW.0>
-1.54792

>  <SCORE.INTRA.norm>
0.0428239

>  <SCORE.RESTR>
0

>  <SCORE.RESTR.CAVITY>
0

>  <SCORE.RESTR.norm>
0

>  <SCORE.SYSTEM>
0

>  <SCORE.SYSTEM.CONST>
0

>  <SCORE.SYSTEM.DIHEDRAL>
0

>  <SCORE.SYSTEM.SOLV>
0

>  <SCORE.SYSTEM.norm>
0

>  <SCORE.heavy>
22

>  <SCORE.norm>
-0.212218

>  <RMSD>
38.523

$$$$
lig.pdb
 OpenBabel11021811523D
libRbt.so/2013.1/901 2013/11/27
 22 23  0  0  0  0  0  0  0  0999 V2000
    5.6324   -1.9765   -8.8884 C   0  0  1  0  0  0  0  0  0  0  0  0
    7.1799   -0.2972   -9.9051 C   0  0  1  0  0  0  0  0  0  0  0  0
    6.3890    0.0396  -11.3016 C   0  0  1  0  0  0  0  0  0  0  0  0
    7.4717    0.6196  -12.3440 C   0  0  2  0  0  0  0  0  0  0  0  0
    4.8261   -2.3819   -7.5733 C   0  0  1  0  0  0  0  0  0  0  0  0
    5.8213   -2.7601   -6.4080 C   0  0  2  0  0  0  0  0  0  0  0  0
    6.6867   -4.0313   -6.8745 C   0  0  1  0  0  0  0  0  0  0  0  0
    7.5829   -3.6514   -8.1696 C   0  0  1  0  0  0  0  0  0  0  0  0
    8.4645   -4.8222   -8.6860 C   0  0  0  0  0  0  0  0  0  0  0  0
    8.0500    1.9879  -11.7314 C   0  0  1  0  0  0  0  0  0  0  0  0
    8.8053    1.6202  -10.3556 C   0  0  0  0  0  0  0  0  0  0  0  0
    7.7880    0.9948   -9.3087 C   0  0  2  0  0  0  0  0  0  0  0  0
    7.6266   -4.4611   -5.8336 F   0  0  0  0  0  0  0  0  0  0  0  0
    3.9426   -1.1706   -7.2388 N   0  0  0  0  0  0  0  0  0  0  0  0
    9.2772   -4.4961   -9.8001 N   0  0  0  0  0  0  0  0  0  0  0  0
    9.0769    2.5764  -12.6481 N   0  0  0  0  0  0  0  0  0  0  0  0
    8.4629    0.6422   -8.0632 N   0  0  0  0  0  0  0  0  0  0  0  0
    6.3197   -0.7891   -8.9024 O   0  0  0  0  0  0  0  0  0  0  0  0
    5.8307   -1.2392  -11.8394 O   0  0  0  0  0  0  0  0  0  0  0  0
    6.8098    0.9092  -13.5286 O   0  0  0  0  0  0  0  0  0  0  0  0
    5.1753   -3.0549   -5.4694 O   0  0  0  0  0  0  0  0  0  0  0  0
    6.5848   -3.1520   -9.2799 O   0  0  0  0  0  0  0  0  0  0  0  0
  1  5  1  0  0  0  0
  1 18  1  1  0  0  0
  2 18  1  1  0  0  0
  2  3  1  0  0  0  0
  2 12  1  0  0  0  0
  3 19  1  6  0  0  0
  3  4  1  0  0  0  0
  4 20  1  6  0  0  0
  4 10  1  0  0  0  0
  5  6  1  0  0  0  0
  5 14  1  1  0  0  0
  6 21  1  1  0  0  0
  7 13  1  1  0  0  0
  7  6  1  0  0  0  0
  8  9  1  6  0  0  0
  8  7  1  0  0  0  0
 10 16  1  6  0  0  0
 11 10  1  0  0  0  0
 12 17  1  1  0  0  0
 12 11  1  0  0  0  0
 15  9  1  0  0  0  0
 22  8  1  0  0  0  0
 22  1  1  0  0  0  0
M  END
>  <CHROM.1>
174.11154226,66.48188160,-178.63072005,6.98232665,-1.37366118,-9.24226486
1.80333029,-0.71867082,2.49617006

>  <Name>
lig.pdb

>  <RI>
0

>  <Rbt.Current_Directory>
/home/itssahil/PROJECTS/Mol_Feturizer/New_Systems/rnas/5bxk

>  <Rbt.Executable>
rbdock ($Id: //depot/dev/client3/rdock/2013.1/src/exe/rbdock.cxx#4 $)

>  <Rbt.Library>
libRbt.so (2013.1, Build901 2013/11/27)

>  <Rbt.Parameter_File>
/export/apps/rDock/src/rDock_2013.1_src/data/scripts/dock_solv.prm

>  <Rbt.Receptor>
prm/blind_docking_20.prm

>  <SCORE>
-6.61664

>  <SCORE.INTER>
-2.42643

>  <SCORE.INTER.CONST>
1

>  <SCORE.INTER.POLAR>
0

>  <SCORE.INTER.ROT>
3

>  <SCORE.INTER.SOLV>
12.1604

>  <SCORE.INTER.VDW>
-11.2711

>  <SCORE.INTER.norm>
-0.110292

>  <SCORE.INTRA>
-4.1902

>  <SCORE.INTRA.DIHEDRAL>
-6.66919

>  <SCORE.INTRA.DIHEDRAL.0>
7.18044

>  <SCORE.INTRA.POLAR>
0

>  <SCORE.INTRA.POLAR.0>
0

>  <SCORE.INTRA.REPUL>
0

>  <SCORE.INTRA.REPUL.0>
0

>  <SCORE.INTRA.SOLV>
-1.72648

>  <SCORE.INTRA.SOLV.lig_0>
-72.0615

>  <SCORE.INTRA.VDW>
0.00762843

>  <SCORE.INTRA.VDW.0>
-1.54792

>  <SCORE.INTRA.norm>
-0.190464

>  <SCORE.RESTR>
0

>  <SCORE.RESTR.CAVITY>
0

>  <SCORE.RESTR.norm>
0

>  <SCORE.SYSTEM>
0

>  <SCORE.SYSTEM.CONST>
0

>  <SCORE.SYSTEM.DIHEDRAL>
0

>  <SCORE.SYSTEM.SOLV>
0

>  <SCORE.SYSTEM.norm>
0

>  <SCORE.heavy>
22

>  <SCORE.norm>
-0.300756

>  <RMSD>
38.532

$$$$
lig.pdb
 OpenBabel11021811523D
libRbt.so/2013.1/901 2013/11/27
 22 23  0  0  0  0  0  0  0  0999 V2000
    3.4208   -1.7866   -8.1299 C   0  0  1  0  0  0  0  0  0  0  0  0
    5.3510   -0.5349   -9.1077 C   0  0  1  0  0  0  0  0  0  0  0  0
    5.3588   -0.4463  -10.7452 C   0  0  1  0  0  0  0  0  0  0  0  0
    6.8912   -0.2823  -11.2144 C   0  0  2  0  0  0  0  0  0  0  0  0
    3.7492   -2.3161   -6.6617 C   0  0  1  0  0  0  0  0  0  0  0  0
    5.2106   -2.9094   -6.6010 C   0  0  2  0  0  0  0  0  0  0  0  0
    5.2927   -4.1565   -7.6112 C   0  0  1  0  0  0  0  0  0  0  0  0
    5.0366   -3.6604   -9.1321 C   0  0  1  0  0  0  0  0  0  0  0  0
    5.1083   -4.8023  -10.1835 C   0  0  0  0  0  0  0  0  0  0  0  0
    7.4354    1.1063  -10.6163 C   0  0  1  0  0  0  0  0  0  0  0  0
    7.3988    0.9877   -9.0091 C   0  0  0  0  0  0  0  0  0  0  0  0
    5.9107    0.7726   -8.4978 C   0  0  2  0  0  0  0  0  0  0  0  0
    6.6200   -4.7805   -7.5984 F   0  0  0  0  0  0  0  0  0  0  0  0
    3.5522   -1.1093   -5.7319 N   0  0  0  0  0  0  0  0  0  0  0  0
    6.3824   -5.4114  -10.3007 N   0  0  0  0  0  0  0  0  0  0  0  0
    8.8658    1.3162  -11.0051 N   0  0  0  0  0  0  0  0  0  0  0  0
    5.8654    0.6473   -7.0440 N   0  0  0  0  0  0  0  0  0  0  0  0
    4.0493   -0.6528   -8.5795 O   0  0  0  0  0  0  0  0  0  0  0  0
    4.8193   -1.7333  -11.2827 O   0  0  0  0  0  0  0  0  0  0  0  0
    6.9065   -0.2046  -12.5997 O   0  0  0  0  0  0  0  0  0  0  0  0
    5.3958   -3.2885   -5.5022 O   0  0  0  0  0  0  0  0  0  0  0  0
    3.6295   -2.9545   -9.1470 O   0  0  0  0  0  0  0  0  0  0  0  0
  1  5  1  0  0  0  0
  1 18  1  6  0  0  0
  2 18  1  1  0  0  0
  2  3  1  0  0  0  0
  2 12  1  0  0  0  0
  3 19  1  6  0  0  0
  3  4  1  0  0  0  0
  4 20  1  6  0  0  0
  4 10  1  0  0  0  0
  5  6  1  0  0  0  0
  5 14  1  1  0  0  0
  6 21  1  1  0  0  0
  7 13  1  6  0  0  0
  7  6  1  0  0  0  0
  8  9  1  6  0  0  0
  8  7  1  0  0  0  0
 10 16  1  6  0  0  0
 11 10  1  0  0  0  0
 12 17  1  1  0  0  0
 12 11  1  0  0  0  0
 15  9  1  0  0  0  0
 22  8  1  0  0  0  0
 22  1  1  0  0  0  0
M  END
>  <CHROM.1>
80.54275630,100.95445027,-64.21160213,5.56090629,-1.70634591,-8.92052247
2.70250155,-1.13675644,-2.75280053

>  <Name>
lig.pdb

>  <RI>
0

>  <Rbt.Current_Directory>
/home/itssahil/PROJECTS/Mol_Feturizer/New_Systems/rnas/5bxk

>  <Rbt.Executable>
rbdock ($Id: //depot/dev/client3/rdock/2013.1/src/exe/rbdock.cxx#4 $)

>  <Rbt.Library>
libRbt.so (2013.1, Build901 2013/11/27)

>  <Rbt.Parameter_File>
/export/apps/rDock/src/rDock_2013.1_src/data/scripts/dock_solv.prm

>  <Rbt.Receptor>
prm/blind_docking_20.prm

>  <SCORE>
-4.70197

>  <SCORE.INTER>
-5.64192

>  <SCORE.INTER.CONST>
1

>  <SCORE.INTER.POLAR>
0

>  <SCORE.INTER.ROT>
3

>  <SCORE.INTER.SOLV>
11.8949

>  <SCORE.INTER.VDW>
-13.3262

>  <SCORE.INTER.norm>
-0.256451

>  <SCORE.INTRA>
0.939947

>  <SCORE.INTRA.DIHEDRAL>
0.390222

>  <SCORE.INTRA.DIHEDRAL.0>
7.18044

>  <SCORE.INTRA.POLAR>
0

>  <SCORE.INTRA.POLAR.0>
0

>  <SCORE.INTRA.REPUL>
0

>  <SCORE.INTRA.REPUL.0>
0

>  <SCORE.INTRA.SOLV>
3.3327

>  <SCORE.INTRA.SOLV.lig_0>
-72.0615

>  <SCORE.INTRA.VDW>
-0.921515

>  <SCORE.INTRA.VDW.0>
-1.54792

>  <SCORE.INTRA.norm>
0.0427249

>  <SCORE.RESTR>
0

>  <SCORE.RESTR.CAVITY>
0

>  <SCORE.RESTR.norm>
0

>  <SCORE.SYSTEM>
0

>  <SCORE.SYSTEM.CONST>
0

>  <SCORE.SYSTEM.DIHEDRAL>
0

>  <SCORE.SYSTEM.SOLV>
0

>  <SCORE.SYSTEM.norm>
0

>  <SCORE.heavy>
22

>  <SCORE.norm>
-0.213726

>  <RMSD>
38.539

$$$$
lig.pdb
 OpenBabel11021811523D
libRbt.so/2013.1/901 2013/11/27
 22 23  0  0  0  0  0  0  0  0999 V2000
    3.4243   -1.7833   -8.1091 C   0  0  1  0  0  0  0  0  0  0  0  0
    5.3445   -0.5389   -9.1154 C   0  0  1  0  0  0  0  0  0  0  0  0
    5.3425   -0.4592  -10.7534 C   0  0  1  0  0  0  0  0  0  0  0  0
    6.8720   -0.2977  -11.2326 C   0  0  2  0  0  0  0  0  0  0  0  0
    3.7725   -2.2972   -6.6398 C   0  0  1  0  0  0  0  0  0  0  0  0
    5.2350   -2.8890   -6.5922 C   0  0  2  0  0  0  0  0  0  0  0  0
    5.3046   -4.1465   -7.5903 C   0  0  1  0  0  0  0  0  0  0  0  0
    5.0281   -3.6666   -9.1128 C   0  0  1  0  0  0  0  0  0  0  0  0
    5.0868   -4.8194  -10.1530 C   0  0  0  0  0  0  0  0  0  0  0  0
    7.4197    1.0942  -10.6454 C   0  0  1  0  0  0  0  0  0  0  0  0
    7.3928    0.9843   -9.0374 C   0  0  0  0  0  0  0  0  0  0  0  0
    5.9079    0.7719   -8.5160 C   0  0  2  0  0  0  0  0  0  0  0  0
    6.6325   -4.7696   -7.5884 F   0  0  0  0  0  0  0  0  0  0  0  0
    3.5868   -1.0808   -5.7202 N   0  0  0  0  0  0  0  0  0  0  0  0
    6.3476   -5.4595  -10.2473 N   0  0  0  0  0  0  0  0  0  0  0  0
    8.8478    1.3020  -11.0439 N   0  0  0  0  0  0  0  0  0  0  0  0
    5.8713    0.6546   -7.0613 N   0  0  0  0  0  0  0  0  0  0  0  0
    4.0461   -0.6539   -8.5787 O   0  0  0  0  0  0  0  0  0  0  0  0
    4.7999   -1.7491  -11.2806 O   0  0  0  0  0  0  0  0  0  0  0  0
    6.8790   -0.2275  -12.6184 O   0  0  0  0  0  0  0  0  0  0  0  0
    5.4349   -3.2564   -5.4920 O   0  0  0  0  0  0  0  0  0  0  0  0
    3.6205   -2.9616   -9.1165 O   0  0  0  0  0  0  0  0  0  0  0  0
  1  5  1  0  0  0  0
  1 18  1  6  0  0  0
  2 18  1  1  0  0  0
  2  3  1  0  0  0  0
  2 12  1  0  0  0  0
  3 19  1  6  0  0  0
  3  4  1  0  0  0  0
  4 20  1  6  0  0  0
  4 10  1  0  0  0  0
  5  6  1  0  0  0  0
  5 14  1  1  0  0  0
  6 21  1  1  0  0  0
  7 13  1  6  0  0  0
  7  6  1  0  0  0  0
  8  9  1  6  0  0  0
  8  7  1  0  0  0  0
 10 16  1  6  0  0  0
 11 10  1  0  0  0  0
 12 17  1  1  0  0  0
 12 11  1  0  0  0  0
 15  9  1  0  0  0  0
 22  8  1  0  0  0  0
 22  1  1  0  0  0  0
M  END
>  <CHROM.1>
79.98586820,101.54261150,-62.13113212,5.55862148,-1.70847901,-8.91770377
2.70784668,-1.14539024,-2.75029456

>  <Name>
lig.pdb

>  <RI>
0

>  <Rbt.Current_Directory>
/home/itssahil/PROJECTS/Mol_Feturizer/New_Systems/rnas/5bxk

>  <Rbt.Executable>
rbdock ($Id: //depot/dev/client3/rdock/2013.1/src/exe/rbdock.cxx#4 $)

>  <Rbt.Library>
libRbt.so (2013.1, Build901 2013/11/27)

>  <Rbt.Parameter_File>
/export/apps/rDock/src/rDock_2013.1_src/data/scripts/dock_solv.prm

>  <Rbt.Receptor>
prm/blind_docking_20.prm

>  <SCORE>
-4.77612

>  <SCORE.INTER>
-5.71154

>  <SCORE.INTER.CONST>
1

>  <SCORE.INTER.POLAR>
0

>  <SCORE.INTER.ROT>
3

>  <SCORE.INTER.SOLV>
11.915

>  <SCORE.INTER.VDW>
-13.3794

>  <SCORE.INTER.norm>
-0.259616

>  <SCORE.INTRA>
0.935421

>  <SCORE.INTRA.DIHEDRAL>
0.347133

>  <SCORE.INTRA.DIHEDRAL.0>
7.18044

>  <SCORE.INTRA.POLAR>
0

>  <SCORE.INTRA.POLAR.0>
0

>  <SCORE.INTRA.REPUL>
0

>  <SCORE.INTRA.REPUL.0>
0

>  <SCORE.INTRA.SOLV>
3.39561

>  <SCORE.INTRA.SOLV.lig_0>
-72.0615

>  <SCORE.INTRA.VDW>
-0.935952

>  <SCORE.INTRA.VDW.0>
-1.54792

>  <SCORE.INTRA.norm>
0.0425191

>  <SCORE.RESTR>
0

>  <SCORE.RESTR.CAVITY>
0

>  <SCORE.RESTR.norm>
0

>  <SCORE.SYSTEM>
0

>  <SCORE.SYSTEM.CONST>
0

>  <SCORE.SYSTEM.DIHEDRAL>
0

>  <SCORE.SYSTEM.SOLV>
0

>  <SCORE.SYSTEM.norm>
0

>  <SCORE.heavy>
22

>  <SCORE.norm>
-0.217096

>  <RMSD>
38.539

$$$$
lig.pdb
 OpenBabel11021811523D
libRbt.so/2013.1/901 2013/11/27
 22 23  0  0  0  0  0  0  0  0999 V2000
    5.9298   -1.9249   -9.0333 C   0  0  1  0  0  0  0  0  0  0  0  0
    7.3426   -0.1159  -10.0233 C   0  0  1  0  0  0  0  0  0  0  0  0
    6.5592    0.1939  -11.4303 C   0  0  1  0  0  0  0  0  0  0  0  0
    7.6240    0.8549  -12.4425 C   0  0  2  0  0  0  0  0  0  0  0  0
    5.0208   -2.3452   -7.7920 C   0  0  1  0  0  0  0  0  0  0  0  0
    5.9073   -2.5590   -6.5037 C   0  0  2  0  0  0  0  0  0  0  0  0
    6.9403   -3.7554   -6.7933 C   0  0  1  0  0  0  0  0  0  0  0  0
    7.9384   -3.3501   -8.0035 C   0  0  1  0  0  0  0  0  0  0  0  0
    8.9835   -4.4475   -8.3470 C   0  0  0  0  0  0  0  0  0  0  0  0
    8.1058    2.2462  -11.7988 C   0  0  1  0  0  0  0  0  0  0  0  0
    8.8558    1.9038  -10.4137 C   0  0  0  0  0  0  0  0  0  0  0  0
    7.8590    1.2014   -9.3964 C   0  0  2  0  0  0  0  0  0  0  0  0
    7.7915   -4.0325   -5.6313 F   0  0  0  0  0  0  0  0  0  0  0  0
    3.9908   -1.2168   -7.6315 N   0  0  0  0  0  0  0  0  0  0  0  0
    9.8320   -4.1278   -9.4361 N   0  0  0  0  0  0  0  0  0  0  0  0
    9.1120    2.9104  -12.6864 N   0  0  0  0  0  0  0  0  0  0  0  0
    8.5304    0.8711   -8.1429 N   0  0  0  0  0  0  0  0  0  0  0  0
    6.4952   -0.6748   -9.0451 O   0  0  0  0  0  0  0  0  0  0  0  0
    6.0905   -1.1080  -11.9975 O   0  0  0  0  0  0  0  0  0  0  0  0
    6.9683    1.1221  -13.6358 O   0  0  0  0  0  0  0  0  0  0  0  0
    5.1892   -2.8718   -5.6251 O   0  0  0  0  0  0  0  0  0  0  0  0
    7.0309   -3.0133   -9.2450 O   0  0  0  0  0  0  0  0  0  0  0  0
  1  5  1  0  0  0  0
  1 18  1  1  0  0  0
  2 18  1  1  0  0  0
  2  3  1  0  0  0  0
  2 12  1  0  0  0  0
  3 19  1  6  0  0  0
  3  4  1  0  0  0  0
  4 20  1  6  0  0  0
  4 10  1  0  0  0  0
  5  6  1  0  0  0  0
  5 14  1  1  0  0  0
  6 21  1  1  0  0  0
  7 13  1  1  0  0  0
  7  6  1  0  0  0  0
  8  9  1  6  0  0  0
  8  7  1  0  0  0  0
 10 16  1  6  0  0  0
 11 10  1  0  0  0  0
 12 17  1  1  0  0  0
 12 11  1  0  0  0  0
 15  9  1  0  0  0  0
 22  8  1  0  0  0  0
 22  1  1  0  0  0  0
M  END
>  <CHROM.1>
178.77932902,69.68701026,177.79507382,7.17796625,-1.15970472,-9.28058515
1.73281955,-0.43397415,2.39953633

>  <Name>
lig.pdb

>  <RI>
0

>  <Rbt.Current_Directory>
/home/itssahil/PROJECTS/Mol_Feturizer/New_Systems/rnas/5bxk

>  <Rbt.Executable>
rbdock ($Id: //depot/dev/client3/rdock/2013.1/src/exe/rbdock.cxx#4 $)

>  <Rbt.Library>
libRbt.so (2013.1, Build901 2013/11/27)

>  <Rbt.Parameter_File>
/export/apps/rDock/src/rDock_2013.1_src/data/scripts/dock_solv.prm

>  <Rbt.Receptor>
prm/blind_docking_20.prm

>  <SCORE>
-6.51061

>  <SCORE.INTER>
-2.42779

>  <SCORE.INTER.CONST>
1

>  <SCORE.INTER.POLAR>
0

>  <SCORE.INTER.ROT>
3

>  <SCORE.INTER.SOLV>
14.9902

>  <SCORE.INTER.VDW>
-12.2153

>  <SCORE.INTER.norm>
-0.110354

>  <SCORE.INTRA>
-4.08283

>  <SCORE.INTRA.DIHEDRAL>
-6.56761

>  <SCORE.INTRA.DIHEDRAL.0>
7.18044

>  <SCORE.INTRA.POLAR>
0

>  <SCORE.INTRA.POLAR.0>
0

>  <SCORE.INTRA.REPUL>
0

>  <SCORE.INTRA.REPUL.0>
0

>  <SCORE.INTRA.SOLV>
-1.61971

>  <SCORE.INTRA.SOLV.lig_0>
-72.0615

>  <SCORE.INTRA.VDW>
0.0108349

>  <SCORE.INTRA.VDW.0>
-1.54792

>  <SCORE.INTRA.norm>
-0.185583

>  <SCORE.RESTR>
0

>  <SCORE.RESTR.CAVITY>
0

>  <SCORE.RESTR.norm>
0

>  <SCORE.SYSTEM>
0

>  <SCORE.SYSTEM.CONST>
0

>  <SCORE.SYSTEM.DIHEDRAL>
0

>  <SCORE.SYSTEM.SOLV>
0

>  <SCORE.SYSTEM.norm>
0

>  <SCORE.heavy>
22

>  <SCORE.norm>
-0.295937

>  <RMSD>
38.566

$$$$
lig.pdb
 OpenBabel11021811523D
libRbt.so/2013.1/901 2013/11/27
 22 23  0  0  0  0  0  0  0  0999 V2000
    4.4384   -0.5037   -8.4950 C   0  0  1  0  0  0  0  0  0  0  0  0
    5.7657    0.9038   -6.9121 C   0  0  1  0  0  0  0  0  0  0  0  0
    6.1096    2.0773   -8.0048 C   0  0  1  0  0  0  0  0  0  0  0  0
    6.4925    3.4084   -7.1822 C   0  0  2  0  0  0  0  0  0  0  0  0
    3.9895   -1.9942   -8.8425 C   0  0  1  0  0  0  0  0  0  0  0  0
    5.1470   -2.7603   -9.5939 C   0  0  2  0  0  0  0  0  0  0  0  0
    5.4471   -1.9948  -10.9746 C   0  0  1  0  0  0  0  0  0  0  0  0
    5.9771   -0.4931  -10.6765 C   0  0  1  0  0  0  0  0  0  0  0  0
    6.3044    0.3213  -11.9587 C   0  0  0  0  0  0  0  0  0  0  0  0
    5.1967    3.8470   -6.3393 C   0  0  1  0  0  0  0  0  0  0  0  0
    4.8806    2.6656   -5.2891 C   0  0  0  0  0  0  0  0  0  0  0  0
    4.5462    1.3135   -6.0520 C   0  0  2  0  0  0  0  0  0  0  0  0
    6.5023   -2.6594  -11.7469 F   0  0  0  0  0  0  0  0  0  0  0  0
    3.6165   -2.6388   -7.4989 N   0  0  0  0  0  0  0  0  0  0  0  0
    7.4063   -0.1721  -12.7005 N   0  0  0  0  0  0  0  0  0  0  0  0
    5.4886    5.0766   -5.5367 N   0  0  0  0  0  0  0  0  0  0  0  0
    4.2737    0.2307   -5.1116 N   0  0  0  0  0  0  0  0  0  0  0  0
    5.3870   -0.3088   -7.5231 O   0  0  0  0  0  0  0  0  0  0  0  0
    7.2969    1.6375   -8.8007 O   0  0  0  0  0  0  0  0  0  0  0  0
    6.7833    4.4075   -8.1001 O   0  0  0  0  0  0  0  0  0  0  0  0
    4.7607   -3.8468   -9.8296 O   0  0  0  0  0  0  0  0  0  0  0  0
    4.8668    0.2158   -9.8144 O   0  0  0  0  0  0  0  0  0  0  0  0
  1  5  1  0  0  0  0
  1 18  1  1  0  0  0
  2 18  1  6  0  0  0
  2  3  1  0  0  0  0
  2 12  1  0  0  0  0
  3 19  1  1  0  0  0
  3  4  1  0  0  0  0
  4 20  1  6  0  0  0
  4 10  1  0  0  0  0
  5  6  1  0  0  0  0
  5 14  1  1  0  0  0
  6 21  1  6  0  0  0
  7 13  1  1  0  0  0
  7  6  1  0  0  0  0
  8  9  1  6  0  0  0
  8  7  1  0  0  0  0
 10 16  1  1  0  0  0
 11 10  1  0  0  0  0
 12 17  1  1  0  0  0
 12 11  1  0  0  0  0
 15  9  1  0  0  0  0
 22  8  1  0  0  0  0
 22  1  1  0  0  0  0
M  END
>  <CHROM.1>
-168.72379214,-50.74703085,-66.58249458,5.51764092,0.34969600,-8.56704245
1.57610954,-1.01894528,-2.45930584

>  <Name>
lig.pdb

>  <RI>
0

>  <Rbt.Current_Directory>
/home/itssahil/PROJECTS/Mol_Feturizer/New_Systems/rnas/5bxk

>  <Rbt.Executable>
rbdock ($Id: //depot/dev/client3/rdock/2013.1/src/exe/rbdock.cxx#4 $)

>  <Rbt.Library>
libRbt.so (2013.1, Build901 2013/11/27)

>  <Rbt.Parameter_File>
/export/apps/rDock/src/rDock_2013.1_src/data/scripts/dock_solv.prm

>  <Rbt.Receptor>
prm/blind_docking_20.prm

>  <SCORE>
-6.23667

>  <SCORE.INTER>
-3.7839

>  <SCORE.INTER.CONST>
1

>  <SCORE.INTER.POLAR>
0

>  <SCORE.INTER.ROT>
3

>  <SCORE.INTER.SOLV>
15.0717

>  <SCORE.INTER.VDW>
-13.1465

>  <SCORE.INTER.norm>
-0.171996

>  <SCORE.INTRA>
-2.45277

>  <SCORE.INTRA.DIHEDRAL>
-5.89015

>  <SCORE.INTRA.DIHEDRAL.0>
7.18044

>  <SCORE.INTRA.POLAR>
0

>  <SCORE.INTRA.POLAR.0>
0

>  <SCORE.INTRA.REPUL>
0

>  <SCORE.INTRA.REPUL.0>
0

>  <SCORE.INTRA.SOLV>
0.994318

>  <SCORE.INTRA.SOLV.lig_0>
-72.0615

>  <SCORE.INTRA.VDW>
-0.00485519

>  <SCORE.INTRA.VDW.0>
-1.54792

>  <SCORE.INTRA.norm>
-0.11149

>  <SCORE.RESTR>
0

>  <SCORE.RESTR.CAVITY>
0

>  <SCORE.RESTR.norm>
0

>  <SCORE.SYSTEM>
0

>  <SCORE.SYSTEM.CONST>
0

>  <SCORE.SYSTEM.DIHEDRAL>
0

>  <SCORE.SYSTEM.SOLV>
0

>  <SCORE.SYSTEM.norm>
0

>  <SCORE.heavy>
22

>  <SCORE.norm>
-0.283485

>  <RMSD>
38.571

$$$$
lig.pdb
 OpenBabel11021811523D
libRbt.so/2013.1/901 2013/11/27
 22 23  0  0  0  0  0  0  0  0999 V2000
    6.0335    1.0348   -7.2480 C   0  0  1  0  0  0  0  0  0  0  0  0
    5.5620    0.3437   -9.6035 C   0  0  1  0  0  0  0  0  0  0  0  0
    7.1550    0.1981   -9.9646 C   0  0  1  0  0  0  0  0  0  0  0  0
    7.2699   -0.7010  -11.2963 C   0  0  2  0  0  0  0  0  0  0  0  0
    5.3633    0.3009   -6.0005 C   0  0  1  0  0  0  0  0  0  0  0  0
    4.1599    1.1532   -5.4377 C   0  0  2  0  0  0  0  0  0  0  0  0
    4.7332    2.5678   -4.9353 C   0  0  1  0  0  0  0  0  0  0  0  0
    5.3639    3.3887   -6.1816 C   0  0  1  0  0  0  0  0  0  0  0  0
    5.9351    4.7797   -5.7901 C   0  0  0  0  0  0  0  0  0  0  0  0
    6.6802   -2.1555  -10.9518 C   0  0  1  0  0  0  0  0  0  0  0  0
    5.1207   -1.9710  -10.5879 C   0  0  0  0  0  0  0  0  0  0  0  0
    4.9505   -1.0468   -9.3077 C   0  0  2  0  0  0  0  0  0  0  0  0
    3.6753    3.4157   -4.3754 F   0  0  0  0  0  0  0  0  0  0  0  0
    4.9316   -1.0806   -6.5152 N   0  0  0  0  0  0  0  0  0  0  0  0
    6.4061    5.5483   -6.8835 N   0  0  0  0  0  0  0  0  0  0  0  0
    6.7445   -3.0427  -12.1560 N   0  0  0  0  0  0  0  0  0  0  0  0
    3.5411   -0.8583   -8.9769 N   0  0  0  0  0  0  0  0  0  0  0  0
    5.3404    1.0937   -8.4307 O   0  0  0  0  0  0  0  0  0  0  0  0
    7.6933    1.5637  -10.2502 O   0  0  0  0  0  0  0  0  0  0  0  0
    8.6158   -0.8307  -11.6079 O   0  0  0  0  0  0  0  0  0  0  0  0
    3.7091    0.5702   -4.5199 O   0  0  0  0  0  0  0  0  0  0  0  0
    6.4750    2.4694   -6.8132 O   0  0  0  0  0  0  0  0  0  0  0  0
  1  5  1  0  0  0  0
  1 18  1  6  0  0  0
  2 18  1  1  0  0  0
  2  3  1  0  0  0  0
  2 12  1  0  0  0  0
  3 19  1  6  0  0  0
  3  4  1  0  0  0  0
  4 20  1  1  0  0  0
  4 10  1  0  0  0  0
  5  6  1  0  0  0  0
  5 14  1  6  0  0  0
  6 21  1  1  0  0  0
  7 13  1  6  0  0  0
  7  6  1  0  0  0  0
  8  9  1  1  0  0  0
  8  7  1  0  0  0  0
 10 16  1  6  0  0  0
 11 10  1  0  0  0  0
 12 17  1  6  0  0  0
 12 11  1  0  0  0  0
 15  9  1  0  0  0  0
 22  8  1  0  0  0  0
 22  1  1  0  0  0  0
M  END
>  <CHROM.1>
-104.73455599,-42.12203600,-175.84174117,5.69072814,0.81808000,-8.03167065
-1.96216031,-0.84124665,-2.52980155

>  <Name>
lig.pdb

>  <RI>
0

>  <Rbt.Current_Directory>
/home/itssahil/PROJECTS/Mol_Feturizer/New_Systems/rnas/5bxk

>  <Rbt.Executable>
rbdock ($Id: //depot/dev/client3/rdock/2013.1/src/exe/rbdock.cxx#4 $)

>  <Rbt.Library>
libRbt.so (2013.1, Build901 2013/11/27)

>  <Rbt.Parameter_File>
/export/apps/rDock/src/rDock_2013.1_src/data/scripts/dock_solv.prm

>  <Rbt.Receptor>
prm/blind_docking_20.prm

>  <SCORE>
-0.915341

>  <SCORE.INTER>
-3.08889

>  <SCORE.INTER.CONST>
1

>  <SCORE.INTER.POLAR>
0

>  <SCORE.INTER.ROT>
3

>  <SCORE.INTER.SOLV>
11.6275

>  <SCORE.INTER.VDW>
-11.5351

>  <SCORE.INTER.norm>
-0.140404

>  <SCORE.INTRA>
2.17355

>  <SCORE.INTRA.DIHEDRAL>
0.365405

>  <SCORE.INTRA.DIHEDRAL.0>
7.18044

>  <SCORE.INTRA.POLAR>
0

>  <SCORE.INTRA.POLAR.0>
0

>  <SCORE.INTRA.REPUL>
0

>  <SCORE.INTRA.REPUL.0>
0

>  <SCORE.INTRA.SOLV>
3.06094

>  <SCORE.INTRA.SOLV.lig_0>
-72.0615

>  <SCORE.INTRA.VDW>
0.460376

>  <SCORE.INTRA.VDW.0>
-1.54792

>  <SCORE.INTRA.norm>
0.0987977

>  <SCORE.RESTR>
0

>  <SCORE.RESTR.CAVITY>
0

>  <SCORE.RESTR.norm>
0

>  <SCORE.SYSTEM>
0

>  <SCORE.SYSTEM.CONST>
0

>  <SCORE.SYSTEM.DIHEDRAL>
0

>  <SCORE.SYSTEM.SOLV>
0

>  <SCORE.SYSTEM.norm>
0

>  <SCORE.heavy>
22

>  <SCORE.norm>
-0.0416064

>  <RMSD>
38.571

$$$$
lig.pdb
 OpenBabel11021811523D
libRbt.so/2013.1/901 2013/11/27
 22 23  0  0  0  0  0  0  0  0999 V2000
    4.4466   -0.4695   -8.4912 C   0  0  1  0  0  0  0  0  0  0  0  0
    5.7723    0.9485   -6.9164 C   0  0  1  0  0  0  0  0  0  0  0  0
    6.1025    2.1215   -8.0137 C   0  0  1  0  0  0  0  0  0  0  0  0
    6.4828    3.4566   -7.1964 C   0  0  2  0  0  0  0  0  0  0  0  0
    4.0003   -1.9628   -8.8303 C   0  0  1  0  0  0  0  0  0  0  0  0
    5.1579   -2.7300   -9.5804 C   0  0  2  0  0  0  0  0  0  0  0  0
    5.4532   -1.9708  -10.9656 C   0  0  1  0  0  0  0  0  0  0  0  0
    5.9805   -0.4665  -10.6761 C   0  0  1  0  0  0  0  0  0  0  0  0
    6.3032    0.3422  -11.9631 C   0  0  0  0  0  0  0  0  0  0  0  0
    5.1897    3.8895   -6.3463 C   0  0  1  0  0  0  0  0  0  0  0  0
    4.8871    2.7086   -5.2917 C   0  0  0  0  0  0  0  0  0  0  0  0
    4.5558    1.3529   -6.0495 C   0  0  2  0  0  0  0  0  0  0  0  0
    6.5082   -2.6369  -11.7368 F   0  0  0  0  0  0  0  0  0  0  0  0
    3.6317   -2.6015   -7.4827 N   0  0  0  0  0  0  0  0  0  0  0  0
    7.3963   -0.1602  -12.7118 N   0  0  0  0  0  0  0  0  0  0  0  0
    5.4794    5.1226   -5.5482 N   0  0  0  0  0  0  0  0  0  0  0  0
    4.2956    0.2706   -5.1051 N   0  0  0  0  0  0  0  0  0  0  0  0
    5.3969   -0.2677   -7.5224 O   0  0  0  0  0  0  0  0  0  0  0  0
    7.2873    1.6869   -8.8161 O   0  0  0  0  0  0  0  0  0  0  0  0
    6.7619    4.4554   -8.1182 O   0  0  0  0  0  0  0  0  0  0  0  0
    4.7735   -3.8186   -9.8098 O   0  0  0  0  0  0  0  0  0  0  0  0
    4.8705    0.2442   -9.8151 O   0  0  0  0  0  0  0  0  0  0  0  0
  1  5  1  0  0  0  0
  1 18  1  1  0  0  0
  2 18  1  6  0  0  0
  2  3  1  0  0  0  0
  2 12  1  0  0  0  0
  3 19  1  6  0  0  0
  3  4  1  0  0  0  0
  4 20  1  6  0  0  0
  4 10  1  0  0  0  0
  5  6  1  0  0  0  0
  5 14  1  1  0  0  0
  6 21  1  6  0  0  0
  7 13  1  1  0  0  0
  7  6  1  0  0  0  0
  8  9  1  6  0  0  0
  8  7  1  0  0  0  0
 10 16  1  1  0  0  0
 11 10  1  0  0  0  0
 12 17  1  1  0  0  0
 12 11  1  0  0  0  0
 15  9  1  0  0  0  0
 22  8  1  0  0  0  0
 22  1  1  0  0  0  0
M  END
>  <CHROM.1>
-168.58324118,-50.50013878,-65.99329046,5.52012229,0.38510395,-8.56717362
1.57258886,-1.02458691,-2.46541873

>  <Name>
lig.pdb

>  <RI>
0

>  <Rbt.Current_Directory>
/home/itssahil/PROJECTS/Mol_Feturizer/New_Systems/rnas/5bxk

>  <Rbt.Executable>
rbdock ($Id: //depot/dev/client3/rdock/2013.1/src/exe/rbdock.cxx#4 $)

>  <Rbt.Library>
libRbt.so (2013.1, Build901 2013/11/27)

>  <Rbt.Parameter_File>
/export/apps/rDock/src/rDock_2013.1_src/data/scripts/dock_solv.prm

>  <Rbt.Receptor>
prm/blind_docking_20.prm

>  <SCORE>
-6.2893

>  <SCORE.INTER>
-3.84634

>  <SCORE.INTER.CONST>
1

>  <SCORE.INTER.POLAR>
0

>  <SCORE.INTER.ROT>
3

>  <SCORE.INTER.SOLV>
14.9643

>  <SCORE.INTER.VDW>
-13.1523

>  <SCORE.INTER.norm>
-0.174834

>  <SCORE.INTRA>
-2.44297

>  <SCORE.INTRA.DIHEDRAL>
-5.88014

>  <SCORE.INTRA.DIHEDRAL.0>
7.18044

>  <SCORE.INTRA.POLAR>
0

>  <SCORE.INTRA.POLAR.0>
0

>  <SCORE.INTRA.REPUL>
0

>  <SCORE.INTRA.REPUL.0>
0

>  <SCORE.INTRA.SOLV>
0.998726

>  <SCORE.INTRA.SOLV.lig_0>
-72.0615

>  <SCORE.INTRA.VDW>
-0.00225884

>  <SCORE.INTRA.VDW.0>
-1.54792

>  <SCORE.INTRA.norm>
-0.111044

>  <SCORE.RESTR>
0

>  <SCORE.RESTR.CAVITY>
0

>  <SCORE.RESTR.norm>
0

>  <SCORE.SYSTEM>
0

>  <SCORE.SYSTEM.CONST>
0

>  <SCORE.SYSTEM.DIHEDRAL>
0

>  <SCORE.SYSTEM.SOLV>
0

>  <SCORE.SYSTEM.norm>
0

>  <SCORE.heavy>
22

>  <SCORE.norm>
-0.285877

>  <RMSD>
38.579

$$$$
lig.pdb
 OpenBabel11021811523D
libRbt.so/2013.1/901 2013/11/27
 22 23  0  0  0  0  0  0  0  0999 V2000
    5.6434   -1.9621   -9.1925 C   0  0  1  0  0  0  0  0  0  0  0  0
    7.2044   -0.1537   -9.9283 C   0  0  1  0  0  0  0  0  0  0  0  0
    6.5720    0.2206  -11.3943 C   0  0  1  0  0  0  0  0  0  0  0  0
    7.7399    0.9093  -12.2644 C   0  0  2  0  0  0  0  0  0  0  0  0
    4.6444   -2.4426   -8.0457 C   0  0  1  0  0  0  0  0  0  0  0  0
    5.4414   -2.8008   -6.7312 C   0  0  2  0  0  0  0  0  0  0  0  0
    6.4425   -4.0137   -7.0613 C   0  0  1  0  0  0  0  0  0  0  0  0
    7.5279   -3.5547   -8.1732 C   0  0  1  0  0  0  0  0  0  0  0  0
    8.5482   -4.6651   -8.5478 C   0  0  0  0  0  0  0  0  0  0  0  0
    8.1628    2.2684  -11.5187 C   0  0  1  0  0  0  0  0  0  0  0  0
    8.7641    1.8628  -10.0791 C   0  0  0  0  0  0  0  0  0  0  0  0
    7.6630    1.1317   -9.1987 C   0  0  2  0  0  0  0  0  0  0  0  0
    7.2095   -4.4229   -5.8799 F   0  0  0  0  0  0  0  0  0  0  0  0
    3.6516   -1.2869   -7.8497 N   0  0  0  0  0  0  0  0  0  0  0  0
    9.5346   -4.2631   -9.4824 N   0  0  0  0  0  0  0  0  0  0  0  0
    9.2596    2.9560  -12.2708 N   0  0  0  0  0  0  0  0  0  0  0  0
    8.1997    0.7444   -7.8975 N   0  0  0  0  0  0  0  0  0  0  0  0
    6.2570   -0.7415   -9.0656 O   0  0  0  0  0  0  0  0  0  0  0  0
    6.1548   -1.0523  -12.0590 O   0  0  0  0  0  0  0  0  0  0  0  0
    7.2121    1.2311  -13.5067 O   0  0  0  0  0  0  0  0  0  0  0  0
    4.6593   -3.1528   -5.9252 O   0  0  0  0  0  0  0  0  0  0  0  0
    6.7119   -3.0770   -9.4319 O   0  0  0  0  0  0  0  0  0  0  0  0
  1  5  1  0  0  0  0
  1 18  1  1  0  0  0
  2 18  1  1  0  0  0
  2  3  1  0  0  0  0
  2 12  1  0  0  0  0
  3 19  1  6  0  0  0
  3  4  1  0  0  0  0
  4 20  1  6  0  0  0
  4 10  1  0  0  0  0
  5  6  1  0  0  0  0
  5 14  1  1  0  0  0
  6 21  1  1  0  0  0
  7 13  1  1  0  0  0
  7  6  1  0  0  0  0
  8  9  1  6  0  0  0
  8  7  1  0  0  0  0
 10 16  1  6  0  0  0
 11 10  1  0  0  0  0
 12 17  1  1  0  0  0
 12 11  1  0  0  0  0
 15  9  1  0  0  0  0
 22  8  1  0  0  0  0
 22  1  1  0  0  0  0
M  END
>  <CHROM.1>
177.36237010,66.74130031,-177.76489977,6.95182451,-1.25541860,-9.30651786
1.83115138,-0.48451476,2.53028934

>  <Name>
lig.pdb

>  <RI>
0

>  <Rbt.Current_Directory>
/home/itssahil/PROJECTS/Mol_Feturizer/New_Systems/rnas/5bxk

>  <Rbt.Executable>
rbdock ($Id: //depot/dev/client3/rdock/2013.1/src/exe/rbdock.cxx#4 $)

>  <Rbt.Library>
libRbt.so (2013.1, Build901 2013/11/27)

>  <Rbt.Parameter_File>
/export/apps/rDock/src/rDock_2013.1_src/data/scripts/dock_solv.prm

>  <Rbt.Receptor>
prm/blind_docking_20.prm

>  <SCORE>
-6.81989

>  <SCORE.INTER>
-2.59882

>  <SCORE.INTER.CONST>
1

>  <SCORE.INTER.POLAR>
0

>  <SCORE.INTER.ROT>
3

>  <SCORE.INTER.SOLV>
15.1721

>  <SCORE.INTER.VDW>
-12.3899

>  <SCORE.INTER.norm>
-0.118128

>  <SCORE.INTRA>
-4.22107

>  <SCORE.INTRA.DIHEDRAL>
-6.77157

>  <SCORE.INTRA.DIHEDRAL.0>
7.18044

>  <SCORE.INTRA.POLAR>
0

>  <SCORE.INTRA.POLAR.0>
0

>  <SCORE.INTRA.REPUL>
0

>  <SCORE.INTRA.REPUL.0>
0

>  <SCORE.INTRA.SOLV>
-1.73262

>  <SCORE.INTRA.SOLV.lig_0>
-72.0615

>  <SCORE.INTRA.VDW>
0.0310238

>  <SCORE.INTRA.VDW.0>
-1.54792

>  <SCORE.INTRA.norm>
-0.191867

>  <SCORE.RESTR>
0

>  <SCORE.RESTR.CAVITY>
0

>  <SCORE.RESTR.norm>
0

>  <SCORE.SYSTEM>
0

>  <SCORE.SYSTEM.CONST>
0

>  <SCORE.SYSTEM.DIHEDRAL>
0

>  <SCORE.SYSTEM.SOLV>
0

>  <SCORE.SYSTEM.norm>
0

>  <SCORE.heavy>
22

>  <SCORE.norm>
-0.309995

>  <RMSD>
38.606

$$$$
lig.pdb
 OpenBabel11021811523D
libRbt.so/2013.1/901 2013/11/27
 22 23  0  0  0  0  0  0  0  0999 V2000
    5.6909   -1.9507   -9.1585 C   0  0  1  0  0  0  0  0  0  0  0  0
    7.2181   -0.1820  -10.0459 C   0  0  1  0  0  0  0  0  0  0  0  0
    6.4875    0.1851  -11.4674 C   0  0  1  0  0  0  0  0  0  0  0  0
    7.6028    0.8335  -12.4322 C   0  0  2  0  0  0  0  0  0  0  0  0
    4.7432   -2.3758   -7.9480 C   0  0  1  0  0  0  0  0  0  0  0  0
    5.5989   -2.6970   -6.6612 C   0  0  2  0  0  0  0  0  0  0  0  0
    6.5684   -3.9346   -6.9943 C   0  0  1  0  0  0  0  0  0  0  0  0
    7.6037   -3.5309   -8.1733 C   0  0  1  0  0  0  0  0  0  0  0  0
    8.5913   -4.6680   -8.5555 C   0  0  0  0  0  0  0  0  0  0  0  0
    8.1096    2.1933  -11.7421 C   0  0  1  0  0  0  0  0  0  0  0  0
    8.8066    1.7951  -10.3442 C   0  0  0  0  0  0  0  0  0  0  0  0
    7.7577    1.1030   -9.3733 C   0  0  2  0  0  0  0  0  0  0  0  0
    7.3870   -4.3112   -5.8369 F   0  0  0  0  0  0  0  0  0  0  0  0
    3.7749   -1.2003   -7.7470 N   0  0  0  0  0  0  0  0  0  0  0  0
    9.5229   -4.3199   -9.5650 N   0  0  0  0  0  0  0  0  0  0  0  0
    9.1628    2.8440  -12.5841 N   0  0  0  0  0  0  0  0  0  0  0  0
    8.3804    0.7226   -8.1089 N   0  0  0  0  0  0  0  0  0  0  0  0
    6.3243   -0.7348   -9.1063 O   0  0  0  0  0  0  0  0  0  0  0  0
    5.9943   -1.0874  -12.0786 O   0  0  0  0  0  0  0  0  0  0  0  0
    6.9919    1.1491  -13.6375 O   0  0  0  0  0  0  0  0  0  0  0  0
    4.8529   -3.0089   -5.8059 O   0  0  0  0  0  0  0  0  0  0  0  0
    6.7331   -3.0880   -9.4079 O   0  0  0  0  0  0  0  0  0  0  0  0
  1  5  1  0  0  0  0
  1 18  1  1  0  0  0
  2 18  1  1  0  0  0
  2  3  1  0  0  0  0
  2 12  1  0  0  0  0
  3 19  1  6  0  0  0
  3  4  1  0  0  0  0
  4 20  1  6  0  0  0
  4 10  1  0  0  0  0
  5  6  1  0  0  0  0
  5 14  1  1  0  0  0
  6 21  1  1  0  0  0
  7 13  1  1  0  0  0
  7  6  1  0  0  0  0
  8  9  1  6  0  0  0
  8  7  1  0  0  0  0
 10 16  1  6  0  0  0
 11 10  1  0  0  0  0
 12 17  1  1  0  0  0
 12 11  1  0  0  0  0
 15  9  1  0  0  0  0
 22  8  1  0  0  0  0
 22  1  1  0  0  0  0
M  END
>  <CHROM.1>
178.53624980,67.75289499,-178.65778370,6.98420982,-1.25359398,-9.36140326
1.79351659,-0.49267772,2.47280685

>  <Name>
lig.pdb

>  <RI>
0

>  <Rbt.Current_Directory>
/home/itssahil/PROJECTS/Mol_Feturizer/New_Systems/rnas/5bxk

>  <Rbt.Executable>
rbdock ($Id: //depot/dev/client3/rdock/2013.1/src/exe/rbdock.cxx#4 $)

>  <Rbt.Library>
libRbt.so (2013.1, Build901 2013/11/27)

>  <Rbt.Parameter_File>
/export/apps/rDock/src/rDock_2013.1_src/data/scripts/dock_solv.prm

>  <Rbt.Receptor>
prm/blind_docking_20.prm

>  <SCORE>
-6.69209

>  <SCORE.INTER>
-2.49734

>  <SCORE.INTER.CONST>
1

>  <SCORE.INTER.POLAR>
0

>  <SCORE.INTER.ROT>
3

>  <SCORE.INTER.SOLV>
14.2028

>  <SCORE.INTER.VDW>
-11.9992

>  <SCORE.INTER.norm>
-0.113516

>  <SCORE.INTRA>
-4.19475

>  <SCORE.INTRA.DIHEDRAL>
-6.73549

>  <SCORE.INTRA.DIHEDRAL.0>
7.18044

>  <SCORE.INTRA.POLAR>
0

>  <SCORE.INTRA.POLAR.0>
0

>  <SCORE.INTRA.REPUL>
0

>  <SCORE.INTRA.REPUL.0>
0

>  <SCORE.INTRA.SOLV>
-1.7041

>  <SCORE.INTRA.SOLV.lig_0>
-72.0615

>  <SCORE.INTRA.VDW>
0.0250512

>  <SCORE.INTRA.VDW.0>
-1.54792

>  <SCORE.INTRA.norm>
-0.19067

>  <SCORE.RESTR>
0

>  <SCORE.RESTR.CAVITY>
0

>  <SCORE.RESTR.norm>
0

>  <SCORE.SYSTEM>
0

>  <SCORE.SYSTEM.CONST>
0

>  <SCORE.SYSTEM.DIHEDRAL>
0

>  <SCORE.SYSTEM.SOLV>
0

>  <SCORE.SYSTEM.norm>
0

>  <SCORE.heavy>
22

>  <SCORE.norm>
-0.304186

>  <RMSD>
38.661

$$$$
lig.pdb
 OpenBabel11021811523D
libRbt.so/2013.1/901 2013/11/27
 22 23  0  0  0  0  0  0  0  0999 V2000
    6.0678    1.3193   -8.4082 C   0  0  1  0  0  0  0  0  0  0  0  0
    4.6524   -0.3488   -9.6175 C   0  0  1  0  0  0  0  0  0  0  0  0
    5.8767   -0.6147  -10.6756 C   0  0  1  0  0  0  0  0  0  0  0  0
    5.5226   -1.9525  -11.5003 C   0  0  2  0  0  0  0  0  0  0  0  0
    6.8743    0.5869   -7.2431 C   0  0  1  0  0  0  0  0  0  0  0  0
    6.1390    0.7731   -5.8590 C   0  0  2  0  0  0  0  0  0  0  0  0
    6.0884    2.3431   -5.5202 C   0  0  1  0  0  0  0  0  0  0  0  0
    5.2170    3.1276   -6.6383 C   0  0  1  0  0  0  0  0  0  0  0  0
    5.1043    4.6565   -6.3848 C   0  0  0  0  0  0  0  0  0  0  0  0
    5.4690   -3.1687  -10.4516 C   0  0  1  0  0  0  0  0  0  0  0  0
    4.2670   -2.8656   -9.4212 C   0  0  0  0  0  0  0  0  0  0  0  0
    4.5442   -1.5245   -8.6171 C   0  0  2  0  0  0  0  0  0  0  0  0
    5.4356    2.6010   -4.2322 F   0  0  0  0  0  0  0  0  0  0  0  0
    6.9803   -0.8839   -7.6735 N   0  0  0  0  0  0  0  0  0  0  0  0
    6.3228    5.3655   -6.5287 N   0  0  0  0  0  0  0  0  0  0  0  0
    5.1295   -4.4471  -11.1529 N   0  0  0  0  0  0  0  0  0  0  0  0
    3.4546   -1.2297   -7.6913 N   0  0  0  0  0  0  0  0  0  0  0  0
    4.8693    0.7902   -8.8158 O   0  0  0  0  0  0  0  0  0  0  0  0
    5.9320    0.5416  -11.6223 O   0  0  0  0  0  0  0  0  0  0  0  0
    6.5554   -2.1858  -12.3972 O   0  0  0  0  0  0  0  0  0  0  0  0
    6.7776    0.2205   -5.0391 O   0  0  0  0  0  0  0  0  0  0  0  0
    5.8884    2.8247   -8.0297 O   0  0  0  0  0  0  0  0  0  0  0  0
  1  5  1  0  0  0  0
  1 18  1  1  0  0  0
  2 18  1  1  0  0  0
  2  3  1  0  0  0  0
  2 12  1  0  0  0  0
  3 19  1  6  0  0  0
  3  4  1  0  0  0  0
  4 20  1  6  0  0  0
  4 10  1  0  0  0  0
  5  6  1  0  0  0  0
  5 14  1  6  0  0  0
  6 21  1  1  0  0  0
  7 13  1  1  0  0  0
  7  6  1  0  0  0  0
  8  9  1  1  0  0  0
  8  7  1  0  0  0  0
 10 16  1  6  0  0  0
 11 10  1  0  0  0  0
 12 17  1  1  0  0  0
 12 11  1  0  0  0  0
 15  9  1  0  0  0  0
 22  8  1  0  0  0  0
 22  1  1  0  0  0  0
M  END
>  <CHROM.1>
-75.42201741,-29.57248198,67.66970718,5.60728337,0.31886793,-8.29944710,-1.08338498
-1.44697983,-1.91655774

>  <Name>
lig.pdb

>  <RI>
0

>  <Rbt.Current_Directory>
/home/itssahil/PROJECTS/Mol_Feturizer/New_Systems/rnas/5bxk

>  <Rbt.Executable>
rbdock ($Id: //depot/dev/client3/rdock/2013.1/src/exe/rbdock.cxx#4 $)

>  <Rbt.Library>
libRbt.so (2013.1, Build901 2013/11/27)

>  <Rbt.Parameter_File>
/export/apps/rDock/src/rDock_2013.1_src/data/scripts/dock_solv.prm

>  <Rbt.Receptor>
prm/blind_docking_20.prm

>  <SCORE>
-3.23468

>  <SCORE.INTER>
-4.97491

>  <SCORE.INTER.CONST>
1

>  <SCORE.INTER.POLAR>
0

>  <SCORE.INTER.ROT>
3

>  <SCORE.INTER.SOLV>
12.1518

>  <SCORE.INTER.VDW>
-12.9672

>  <SCORE.INTER.norm>
-0.226132

>  <SCORE.INTRA>
1.74024

>  <SCORE.INTRA.DIHEDRAL>
-2.0832

>  <SCORE.INTRA.DIHEDRAL.0>
7.18044

>  <SCORE.INTRA.POLAR>
0

>  <SCORE.INTRA.POLAR.0>
0

>  <SCORE.INTRA.REPUL>
0

>  <SCORE.INTRA.REPUL.0>
0

>  <SCORE.INTRA.SOLV>
4.88641

>  <SCORE.INTRA.SOLV.lig_0>
-72.0615

>  <SCORE.INTRA.VDW>
0.33863

>  <SCORE.INTRA.VDW.0>
-1.54792

>  <SCORE.INTRA.norm>
0.0791017

>  <SCORE.RESTR>
0

>  <SCORE.RESTR.CAVITY>
0

>  <SCORE.RESTR.norm>
0

>  <SCORE.SYSTEM>
0

>  <SCORE.SYSTEM.CONST>
0

>  <SCORE.SYSTEM.DIHEDRAL>
0

>  <SCORE.SYSTEM.SOLV>
0

>  <SCORE.SYSTEM.norm>
0

>  <SCORE.heavy>
22

>  <SCORE.norm>
-0.147031

>  <RMSD>
38.782

$$$$
lig.pdb
 OpenBabel11021811523D
libRbt.so/2013.1/901 2013/11/27
 22 23  0  0  0  0  0  0  0  0999 V2000
    5.0726   -1.8728   -9.4824 C   0  0  1  0  0  0  0  0  0  0  0  0
    6.8855   -0.2211   -9.9658 C   0  0  1  0  0  0  0  0  0  0  0  0
    6.4679    0.1579  -11.5057 C   0  0  1  0  0  0  0  0  0  0  0  0
    7.7738    0.7667  -12.2262 C   0  0  2  0  0  0  0  0  0  0  0  0
    4.2044   -2.5098   -8.3057 C   0  0  1  0  0  0  0  0  0  0  0  0
    5.1418   -3.1692   -7.2204 C   0  0  2  0  0  0  0  0  0  0  0  0
    5.9748   -4.3508   -7.9220 C   0  0  1  0  0  0  0  0  0  0  0  0
    6.9310   -3.7469   -9.0821 C   0  0  1  0  0  0  0  0  0  0  0  0
    7.7858   -4.8207   -9.8107 C   0  0  0  0  0  0  0  0  0  0  0  0
    8.1720    2.1155  -11.4489 C   0  0  1  0  0  0  0  0  0  0  0  0
    8.5606    1.7063   -9.9389 C   0  0  0  0  0  0  0  0  0  0  0  0
    7.3171    1.0519   -9.1990 C   0  0  2  0  0  0  0  0  0  0  0  0
    6.8594   -5.0319   -6.9707 F   0  0  0  0  0  0  0  0  0  0  0  0
    3.3559   -1.3580   -7.7462 N   0  0  0  0  0  0  0  0  0  0  0  0
    8.8041   -5.3990   -9.0128 N   0  0  0  0  0  0  0  0  0  0  0  0
    9.3925    2.7292  -12.0615 N   0  0  0  0  0  0  0  0  0  0  0  0
    7.6604    0.6617   -7.8348 N   0  0  0  0  0  0  0  0  0  0  0  0
    5.8044   -0.7410   -9.2254 O   0  0  0  0  0  0  0  0  0  0  0  0
    6.0697   -1.1036  -12.2030 O   0  0  0  0  0  0  0  0  0  0  0  0
    7.4283    1.0921  -13.5300 O   0  0  0  0  0  0  0  0  0  0  0  0
    4.4515   -3.6260   -6.3837 O   0  0  0  0  0  0  0  0  0  0  0  0
    5.9933   -2.9806  -10.0881 O   0  0  0  0  0  0  0  0  0  0  0  0
  1  5  1  0  0  0  0
  1 18  1  1  0  0  0
  2 18  1  1  0  0  0
  2  3  1  0  0  0  0
  2 12  1  0  0  0  0
  3 19  1  6  0  0  0
  3  4  1  0  0  0  0
  4 20  1  6  0  0  0
  4 10  1  0  0  0  0
  5  6  1  0  0  0  0
  5 14  1  1  0  0  0
  6 21  1  1  0  0  0
  7 13  1  1  0  0  0
  7  6  1  0  0  0  0
  8  9  1  6  0  0  0
  8  7  1  0  0  0  0
 10 16  1  6  0  0  0
 11 10  1  0  0  0  0
 12 17  1  1  0  0  0
 12 11  1  0  0  0  0
 15  9  1  0  0  0  0
 22  8  1  0  0  0  0
 22  1  1  0  0  0  0
M  END
>  <CHROM.1>
161.66206913,60.69103726,-69.07673190,6.63068753,-1.46047291,-9.57724109
1.97364774,-0.74415913,2.80649949

>  <Name>
lig.pdb

>  <RI>
0

>  <Rbt.Current_Directory>
/home/itssahil/PROJECTS/Mol_Feturizer/New_Systems/rnas/5bxk

>  <Rbt.Executable>
rbdock ($Id: //depot/dev/client3/rdock/2013.1/src/exe/rbdock.cxx#4 $)

>  <Rbt.Library>
libRbt.so (2013.1, Build901 2013/11/27)

>  <Rbt.Parameter_File>
/export/apps/rDock/src/rDock_2013.1_src/data/scripts/dock_solv.prm

>  <Rbt.Receptor>
prm/blind_docking_20.prm

>  <SCORE>
-4.64839

>  <SCORE.INTER>
-1.62192

>  <SCORE.INTER.CONST>
1

>  <SCORE.INTER.POLAR>
0

>  <SCORE.INTER.ROT>
3

>  <SCORE.INTER.SOLV>
16.4577

>  <SCORE.INTER.VDW>
-12.1672

>  <SCORE.INTER.norm>
-0.0737237

>  <SCORE.INTRA>
-3.02647

>  <SCORE.INTRA.DIHEDRAL>
-5.2735

>  <SCORE.INTRA.DIHEDRAL.0>
7.18044

>  <SCORE.INTRA.POLAR>
0

>  <SCORE.INTRA.POLAR.0>
0

>  <SCORE.INTRA.REPUL>
0

>  <SCORE.INTRA.REPUL.0>
0

>  <SCORE.INTRA.SOLV>
-0.899188

>  <SCORE.INTRA.SOLV.lig_0>
-72.0615

>  <SCORE.INTRA.VDW>
0.0598718

>  <SCORE.INTRA.VDW.0>
-1.54792

>  <SCORE.INTRA.norm>
-0.137567

>  <SCORE.RESTR>
0

>  <SCORE.RESTR.CAVITY>
0

>  <SCORE.RESTR.norm>
0

>  <SCORE.SYSTEM>
0

>  <SCORE.SYSTEM.CONST>
0

>  <SCORE.SYSTEM.DIHEDRAL>
0

>  <SCORE.SYSTEM.SOLV>
0

>  <SCORE.SYSTEM.norm>
0

>  <SCORE.heavy>
22

>  <SCORE.norm>
-0.211291

>  <RMSD>
38.876

$$$$
lig.pdb
 OpenBabel11021811523D
libRbt.so/2013.1/901 2013/11/27
 22 23  0  0  0  0  0  0  0  0999 V2000
    5.0799   -1.8717   -9.5115 C   0  0  1  0  0  0  0  0  0  0  0  0
    6.8944   -0.2173   -9.9792 C   0  0  1  0  0  0  0  0  0  0  0  0
    6.5106    0.1336  -11.5345 C   0  0  1  0  0  0  0  0  0  0  0  0
    7.8293    0.7388  -12.2344 C   0  0  2  0  0  0  0  0  0  0  0  0
    4.1984   -2.5026   -8.3414 C   0  0  1  0  0  0  0  0  0  0  0  0
    5.1239   -3.1434   -7.2350 C   0  0  2  0  0  0  0  0  0  0  0  0
    5.9759   -4.3263   -7.9111 C   0  0  1  0  0  0  0  0  0  0  0  0
    6.9454   -3.7277   -9.0629 C   0  0  1  0  0  0  0  0  0  0  0  0
    7.8189   -4.8028   -9.7669 C   0  0  0  0  0  0  0  0  0  0  0  0
    8.2010    2.1028  -11.4706 C   0  0  1  0  0  0  0  0  0  0  0  0
    8.5566    1.7211   -9.9454 C   0  0  0  0  0  0  0  0  0  0  0  0
    7.3001    1.0710   -9.2239 C   0  0  2  0  0  0  0  0  0  0  0  0
    6.8508   -4.9907   -6.9392 F   0  0  0  0  0  0  0  0  0  0  0  0
    3.3332   -1.3512   -7.8073 N   0  0  0  0  0  0  0  0  0  0  0  0
    8.8485   -5.3432   -8.9568 N   0  0  0  0  0  0  0  0  0  0  0  0
    9.4316    2.7142  -12.0648 N   0  0  0  0  0  0  0  0  0  0  0  0
    7.6138    0.7057   -7.8457 N   0  0  0  0  0  0  0  0  0  0  0  0
    5.7995   -0.7318   -9.2556 O   0  0  0  0  0  0  0  0  0  0  0  0
    6.1366   -1.1419  -12.2198 O   0  0  0  0  0  0  0  0  0  0  0  0
    7.5123    1.0404  -13.5512 O   0  0  0  0  0  0  0  0  0  0  0  0
    4.4242   -3.5965   -6.4040 O   0  0  0  0  0  0  0  0  0  0  0  0
    6.0177   -2.9791  -10.0912 O   0  0  0  0  0  0  0  0  0  0  0  0
  1  5  1  0  0  0  0
  1 18  1  1  0  0  0
  2 18  1  1  0  0  0
  2  3  1  0  0  0  0
  2 12  1  0  0  0  0
  3 19  1  6  0  0  0
  3  4  1  0  0  0  0
  4 20  1  6  0  0  0
  4 10  1  0  0  0  0
  5  6  1  0  0  0  0
  5 14  1  1  0  0  0
  6 21  1  1  0  0  0
  7 13  1  1  0  0  0
  7  6  1  0  0  0  0
  8  9  1  6  0  0  0
  8  7  1  0  0  0  0
 10 16  1  6  0  0  0
 11 10  1  0  0  0  0
 12 17  1  1  0  0  0
 12 11  1  0  0  0  0
 15  9  1  0  0  0  0
 22  8  1  0  0  0  0
 22  1  1  0  0  0  0
M  END
>  <CHROM.1>
161.13744275,60.61201515,-70.43842378,6.64431868,-1.45346575,-9.58526445
1.97886369,-0.72880973,2.79866994

>  <Name>
lig.pdb

>  <RI>
0

>  <Rbt.Current_Directory>
/home/itssahil/PROJECTS/Mol_Feturizer/New_Systems/rnas/5bxk

>  <Rbt.Executable>
rbdock ($Id: //depot/dev/client3/rdock/2013.1/src/exe/rbdock.cxx#4 $)

>  <Rbt.Library>
libRbt.so (2013.1, Build901 2013/11/27)

>  <Rbt.Parameter_File>
/export/apps/rDock/src/rDock_2013.1_src/data/scripts/dock_solv.prm

>  <Rbt.Receptor>
prm/blind_docking_20.prm

>  <SCORE>
-4.67129

>  <SCORE.INTER>
-1.72347

>  <SCORE.INTER.CONST>
1

>  <SCORE.INTER.POLAR>
0

>  <SCORE.INTER.ROT>
3

>  <SCORE.INTER.SOLV>
16.47

>  <SCORE.INTER.VDW>
-12.239

>  <SCORE.INTER.norm>
-0.0783397

>  <SCORE.INTRA>
-2.94782

>  <SCORE.INTRA.DIHEDRAL>
-5.10354

>  <SCORE.INTRA.DIHEDRAL.0>
7.18044

>  <SCORE.INTRA.POLAR>
0

>  <SCORE.INTRA.POLAR.0>
0

>  <SCORE.INTRA.REPUL>
0

>  <SCORE.INTRA.REPUL.0>
0

>  <SCORE.INTRA.SOLV>
-0.912253

>  <SCORE.INTRA.SOLV.lig_0>
-72.0615

>  <SCORE.INTRA.VDW>
0.0600763

>  <SCORE.INTRA.VDW.0>
-1.54792

>  <SCORE.INTRA.norm>
-0.133992

>  <SCORE.RESTR>
0

>  <SCORE.RESTR.CAVITY>
0

>  <SCORE.RESTR.norm>
0

>  <SCORE.SYSTEM>
0

>  <SCORE.SYSTEM.CONST>
0

>  <SCORE.SYSTEM.DIHEDRAL>
0

>  <SCORE.SYSTEM.SOLV>
0

>  <SCORE.SYSTEM.norm>
0

>  <SCORE.heavy>
22

>  <SCORE.norm>
-0.212331

>  <RMSD>
38.882

$$$$
lig.pdb
 OpenBabel11021811523D
libRbt.so/2013.1/901 2013/11/27
 22 23  0  0  0  0  0  0  0  0999 V2000
    7.2522   -0.8704   -8.4552 C   0  0  1  0  0  0  0  0  0  0  0  0
    8.3251   -0.4186  -10.6673 C   0  0  1  0  0  0  0  0  0  0  0  0
    7.4825   -1.5027  -11.5640 C   0  0  1  0  0  0  0  0  0  0  0  0
    7.5279   -1.0045  -13.0952 C   0  0  2  0  0  0  0  0  0  0  0  0
    7.5144   -1.0840   -6.8965 C   0  0  1  0  0  0  0  0  0  0  0  0
    8.1019   -2.5237   -6.6259 C   0  0  2  0  0  0  0  0  0  0  0  0
    7.0184   -3.6102   -7.1030 C   0  0  1  0  0  0  0  0  0  0  0  0
    6.7670   -3.4842   -8.6986 C   0  0  1  0  0  0  0  0  0  0  0  0
    5.7375   -4.5076   -9.2529 C   0  0  0  0  0  0  0  0  0  0  0  0
    6.7831    0.4177  -13.1647 C   0  0  1  0  0  0  0  0  0  0  0  0
    7.6292    1.4508  -12.2617 C   0  0  0  0  0  0  0  0  0  0  0  0
    7.6584    0.9756  -10.7467 C   0  0  2  0  0  0  0  0  0  0  0  0
    7.4817   -4.9814   -6.8650 F   0  0  0  0  0  0  0  0  0  0  0  0
    8.4709    0.0431   -6.4788 N   0  0  0  0  0  0  0  0  0  0  0  0
    5.5621   -4.4593  -10.6582 N   0  0  0  0  0  0  0  0  0  0  0  0
    6.8007    0.9474  -14.5648 N   0  0  0  0  0  0  0  0  0  0  0  0
    8.4356    1.8946   -9.9205 N   0  0  0  0  0  0  0  0  0  0  0  0
    8.3296   -0.7404   -9.2948 O   0  0  0  0  0  0  0  0  0  0  0  0
    8.1714   -2.8261  -11.4611 O   0  0  0  0  0  0  0  0  0  0  0  0
    6.8149   -1.9160  -13.8610 O   0  0  0  0  0  0  0  0  0  0  0  0
    8.2694   -2.6278   -5.4655 O   0  0  0  0  0  0  0  0  0  0  0  0
    6.3061   -2.0033   -8.9685 O   0  0  0  0  0  0  0  0  0  0  0  0
  1  5  1  0  0  0  0
  1 18  1  6  0  0  0
  2 18  1  1  0  0  0
  2  3  1  0  0  0  0
  2 12  1  0  0  0  0
  3 19  1  6  0  0  0
  3  4  1  0  0  0  0
  4 20  1  6  0  0  0
  4 10  1  0  0  0  0
  5  6  1  0  0  0  0
  5 14  1  6  0  0  0
  6 21  1  1  0  0  0
  7 13  1  6  0  0  0
  7  6  1  0  0  0  0
  8  9  1  1  0  0  0
  8  7  1  0  0  0  0
 10 16  1  6  0  0  0
 11 10  1  0  0  0  0
 12 17  1  1  0  0  0
 12 11  1  0  0  0  0
 15  9  1  0  0  0  0
 22  8  1  0  0  0  0
 22  1  1  0  0  0  0
M  END
>  <CHROM.1>
-173.30077636,-59.73572655,-176.67462585,7.38943472,-1.57051398,-9.77780191
-1.49949757,-1.21675270,-1.01194561

>  <Name>
lig.pdb

>  <RI>
0

>  <Rbt.Current_Directory>
/home/itssahil/PROJECTS/Mol_Feturizer/New_Systems/rnas/5bxk

>  <Rbt.Executable>
rbdock ($Id: //depot/dev/client3/rdock/2013.1/src/exe/rbdock.cxx#4 $)

>  <Rbt.Library>
libRbt.so (2013.1, Build901 2013/11/27)

>  <Rbt.Parameter_File>
/export/apps/rDock/src/rDock_2013.1_src/data/scripts/dock_solv.prm

>  <Rbt.Receptor>
prm/blind_docking_20.prm

>  <SCORE>
-2.22938

>  <SCORE.INTER>
0.662496

>  <SCORE.INTER.CONST>
1

>  <SCORE.INTER.POLAR>
0

>  <SCORE.INTER.ROT>
3

>  <SCORE.INTER.SOLV>
10.6462

>  <SCORE.INTER.VDW>
-8.70707

>  <SCORE.INTER.norm>
0.0301134

>  <SCORE.INTRA>
-2.89187

>  <SCORE.INTRA.DIHEDRAL>
-6.79306

>  <SCORE.INTRA.DIHEDRAL.0>
7.18044

>  <SCORE.INTRA.POLAR>
0

>  <SCORE.INTRA.POLAR.0>
0

>  <SCORE.INTRA.REPUL>
0

>  <SCORE.INTRA.REPUL.0>
0

>  <SCORE.INTRA.SOLV>
1.47949

>  <SCORE.INTRA.SOLV.lig_0>
-72.0615

>  <SCORE.INTRA.VDW>
-0.235089

>  <SCORE.INTRA.VDW.0>
-1.54792

>  <SCORE.INTRA.norm>
-0.131449

>  <SCORE.RESTR>
0

>  <SCORE.RESTR.CAVITY>
0

>  <SCORE.RESTR.norm>
0

>  <SCORE.SYSTEM>
0

>  <SCORE.SYSTEM.CONST>
0

>  <SCORE.SYSTEM.DIHEDRAL>
0

>  <SCORE.SYSTEM.SOLV>
0

>  <SCORE.SYSTEM.norm>
0

>  <SCORE.heavy>
22

>  <SCORE.norm>
-0.101335

>  <RMSD>
39.009

$$$$
lig.pdb
 OpenBabel11021811523D
libRbt.so/2013.1/901 2013/11/27
 22 23  0  0  0  0  0  0  0  0999 V2000
    7.3271    0.3934   -9.6288 C   0  0  1  0  0  0  0  0  0  0  0  0
    5.2211    0.5327   -8.2894 C   0  0  1  0  0  0  0  0  0  0  0  0
    4.4954   -0.8209   -8.8641 C   0  0  1  0  0  0  0  0  0  0  0  0
    3.4262   -1.3036   -7.7600 C   0  0  2  0  0  0  0  0  0  0  0  0
    8.2672    1.1492  -10.6723 C   0  0  1  0  0  0  0  0  0  0  0  0
    7.5578    1.2594  -12.0780 C   0  0  2  0  0  0  0  0  0  0  0  0
    7.2939   -0.2267  -12.6294 C   0  0  1  0  0  0  0  0  0  0  0  0
    6.2836   -1.0178  -11.6403 C   0  0  1  0  0  0  0  0  0  0  0  0
    5.9613   -2.4659  -12.1023 C   0  0  0  0  0  0  0  0  0  0  0  0
    4.2414   -1.6773   -6.4266 C   0  0  1  0  0  0  0  0  0  0  0  0
    4.9518   -0.3293   -5.9008 C   0  0  0  0  0  0  0  0  0  0  0  0
    5.9815    0.2177   -6.9790 C   0  0  2  0  0  0  0  0  0  0  0  0
    6.6528   -0.2117  -13.9486 F   0  0  0  0  0  0  0  0  0  0  0  0
    8.5689    2.5177  -10.0431 N   0  0  0  0  0  0  0  0  0  0  0  0
    5.1156   -3.1867  -11.2229 N   0  0  0  0  0  0  0  0  0  0  0  0
    3.3023   -2.1235   -5.3494 N   0  0  0  0  0  0  0  0  0  0  0  0
    6.6204    1.4480   -6.5216 N   0  0  0  0  0  0  0  0  0  0  0  0
    6.2041    1.0327   -9.1675 O   0  0  0  0  0  0  0  0  0  0  0  0
    3.7695   -0.4610  -10.1211 O   0  0  0  0  0  0  0  0  0  0  0  0
    2.8086   -2.4505   -8.2380 O   0  0  0  0  0  0  0  0  0  0  0  0
    8.2951    1.8173  -12.8063 O   0  0  0  0  0  0  0  0  0  0  0  0
    6.9462   -1.0053  -10.2123 O   0  0  0  0  0  0  0  0  0  0  0  0
  1  5  1  0  0  0  0
  1 18  1  6  0  0  0
  2 18  1  6  0  0  0
  2  3  1  0  0  0  0
  2 12  1  0  0  0  0
  3 19  1  6  0  0  0
  3  4  1  0  0  0  0
  4 20  1  6  0  0  0
  4 10  1  0  0  0  0
  5  6  1  0  0  0  0
  5 14  1  1  0  0  0
  6 21  1  6  0  0  0
  7 13  1  6  0  0  0
  7  6  1  0  0  0  0
  8  9  1  6  0  0  0
  8  7  1  0  0  0  0
 10 16  1  1  0  0  0
 11 10  1  0  0  0  0
 12 17  1  1  0  0  0
 12 11  1  0  0  0  0
 15  9  1  0  0  0  0
 22  8  1  0  0  0  0
 22  1  1  0  0  0  0
M  END
>  <CHROM.1>
177.45284764,-58.94312999,177.91157386,5.87638049,-0.31467707,-9.66190961
-0.75008482,0.80388231,1.21586982

>  <Name>
lig.pdb

>  <RI>
0

>  <Rbt.Current_Directory>
/home/itssahil/PROJECTS/Mol_Feturizer/New_Systems/rnas/5bxk

>  <Rbt.Executable>
rbdock ($Id: //depot/dev/client3/rdock/2013.1/src/exe/rbdock.cxx#4 $)

>  <Rbt.Library>
libRbt.so (2013.1, Build901 2013/11/27)

>  <Rbt.Parameter_File>
/export/apps/rDock/src/rDock_2013.1_src/data/scripts/dock_solv.prm

>  <Rbt.Receptor>
prm/blind_docking_20.prm

>  <SCORE>
-5.28645

>  <SCORE.INTER>
-2.56352

>  <SCORE.INTER.CONST>
1

>  <SCORE.INTER.POLAR>
0

>  <SCORE.INTER.ROT>
3

>  <SCORE.INTER.SOLV>
15.3973

>  <SCORE.INTER.VDW>
-12.4414

>  <SCORE.INTER.norm>
-0.116524

>  <SCORE.INTRA>
-2.72293

>  <SCORE.INTRA.DIHEDRAL>
-6.9934

>  <SCORE.INTRA.DIHEDRAL.0>
7.18044

>  <SCORE.INTRA.POLAR>
0

>  <SCORE.INTRA.POLAR.0>
0

>  <SCORE.INTRA.REPUL>
0

>  <SCORE.INTRA.REPUL.0>
0

>  <SCORE.INTRA.SOLV>
1.76666

>  <SCORE.INTRA.SOLV.lig_0>
-72.0615

>  <SCORE.INTRA.VDW>
-0.109557

>  <SCORE.INTRA.VDW.0>
-1.54792

>  <SCORE.INTRA.norm>
-0.123769

>  <SCORE.RESTR>
0

>  <SCORE.RESTR.CAVITY>
0

>  <SCORE.RESTR.norm>
0

>  <SCORE.SYSTEM>
0

>  <SCORE.SYSTEM.CONST>
0

>  <SCORE.SYSTEM.DIHEDRAL>
0

>  <SCORE.SYSTEM.SOLV>
0

>  <SCORE.SYSTEM.norm>
0

>  <SCORE.heavy>
22

>  <SCORE.norm>
-0.240293

>  <RMSD>
39.463

$$$$
lig.pdb
 OpenBabel11021811523D
libRbt.so/2013.1/901 2013/11/27
 22 23  0  0  0  0  0  0  0  0999 V2000
    7.3472    0.4068   -9.6329 C   0  0  1  0  0  0  0  0  0  0  0  0
    5.2328    0.5514   -8.3074 C   0  0  1  0  0  0  0  0  0  0  0  0
    4.5213   -0.8111   -8.8789 C   0  0  1  0  0  0  0  0  0  0  0  0
    3.4419   -1.2903   -7.7833 C   0  0  2  0  0  0  0  0  0  0  0  0
    8.3064    1.1677  -10.6552 C   0  0  1  0  0  0  0  0  0  0  0  0
    7.6158    1.3005  -12.0683 C   0  0  2  0  0  0  0  0  0  0  0  0
    7.3474   -0.1767  -12.6410 C   0  0  1  0  0  0  0  0  0  0  0  0
    6.3185   -0.9717  -11.6745 C   0  0  1  0  0  0  0  0  0  0  0  0
    5.9908   -2.4115  -12.1582 C   0  0  0  0  0  0  0  0  0  0  0  0
    4.2433   -1.6480   -6.4373 C   0  0  1  0  0  0  0  0  0  0  0  0
    4.9401   -0.2916   -5.9147 C   0  0  0  0  0  0  0  0  0  0  0  0
    5.9794    0.2518   -6.9854 C   0  0  2  0  0  0  0  0  0  0  0  0
    6.7232   -0.1407  -13.9679 F   0  0  0  0  0  0  0  0  0  0  0  0
    8.6106    2.5260  -10.0056 N   0  0  0  0  0  0  0  0  0  0  0  0
    7.1151   -3.2695  -12.2472 N   0  0  0  0  0  0  0  0  0  0  0  0
    3.2939   -2.0902   -5.3674 N   0  0  0  0  0  0  0  0  0  0  0  0
    6.6062    1.4896   -6.5311 N   0  0  0  0  0  0  0  0  0  0  0  0
    6.2235    1.0493   -9.1780 O   0  0  0  0  0  0  0  0  0  0  0  0
    3.8085   -0.4660  -10.1473 O   0  0  0  0  0  0  0  0  0  0  0  0
    2.8362   -2.4447   -8.2587 O   0  0  0  0  0  0  0  0  0  0  0  0
    8.3666    1.8613  -12.7804 O   0  0  0  0  0  0  0  0  0  0  0  0
    6.9630   -0.9817  -10.2381 O   0  0  0  0  0  0  0  0  0  0  0  0
  1  5  1  0  0  0  0
  1 18  1  6  0  0  0
  2 18  1  6  0  0  0
  2  3  1  0  0  0  0
  2 12  1  0  0  0  0
  3 19  1  6  0  0  0
  3  4  1  0  0  0  0
  4 20  1  6  0  0  0
  4 10  1  0  0  0  0
  5  6  1  0  0  0  0
  5 14  1  1  0  0  0
  6 21  1  6  0  0  0
  7 13  1  6  0  0  0
  7  6  1  0  0  0  0
  8  9  1  6  0  0  0
  8  7  1  0  0  0  0
 10 16  1  1  0  0  0
 11 10  1  0  0  0  0
 12 17  1  1  0  0  0
 12 11  1  0  0  0  0
 15  9  1  0  0  0  0
 22  8  1  0  0  0  0
 22  1  1  0  0  0  0
M  END
>  <CHROM.1>
178.19056179,-58.10903658,60.46967959,5.99134028,-0.29048734,-9.71847613
-0.72815098,0.82210694,1.12309435

>  <Name>
lig.pdb

>  <RI>
0

>  <Rbt.Current_Directory>
/home/itssahil/PROJECTS/Mol_Feturizer/New_Systems/rnas/5bxk

>  <Rbt.Executable>
rbdock ($Id: //depot/dev/client3/rdock/2013.1/src/exe/rbdock.cxx#4 $)

>  <Rbt.Library>
libRbt.so (2013.1, Build901 2013/11/27)

>  <Rbt.Parameter_File>
/export/apps/rDock/src/rDock_2013.1_src/data/scripts/dock_solv.prm

>  <Rbt.Receptor>
prm/blind_docking_20.prm

>  <SCORE>
-5.8748

>  <SCORE.INTER>
-2.72767

>  <SCORE.INTER.CONST>
1

>  <SCORE.INTER.POLAR>
0

>  <SCORE.INTER.ROT>
3

>  <SCORE.INTER.SOLV>
13.9629

>  <SCORE.INTER.VDW>
-12.0728

>  <SCORE.INTER.norm>
-0.123985

>  <SCORE.INTRA>
-3.14713

>  <SCORE.INTRA.DIHEDRAL>
-7.01095

>  <SCORE.INTRA.DIHEDRAL.0>
7.18044

>  <SCORE.INTRA.POLAR>
0

>  <SCORE.INTRA.POLAR.0>
0

>  <SCORE.INTRA.REPUL>
0

>  <SCORE.INTRA.REPUL.0>
0

>  <SCORE.INTRA.SOLV>
0.555693

>  <SCORE.INTRA.SOLV.lig_0>
-72.0615

>  <SCORE.INTRA.VDW>
0.080498

>  <SCORE.INTRA.VDW.0>
-1.54792

>  <SCORE.INTRA.norm>
-0.143051

>  <SCORE.RESTR>
0

>  <SCORE.RESTR.CAVITY>
0

>  <SCORE.RESTR.norm>
0

>  <SCORE.SYSTEM>
0

>  <SCORE.SYSTEM.CONST>
0

>  <SCORE.SYSTEM.DIHEDRAL>
0

>  <SCORE.SYSTEM.SOLV>
0

>  <SCORE.SYSTEM.norm>
0

>  <SCORE.heavy>
22

>  <SCORE.norm>
-0.267037

>  <RMSD>
39.484

$$$$
