@<TRIPOS>MOLECULE
5bxk_rdock.pdb
 1916 2134 0 0 0
SMALL
GASTEIGER

@<TRIPOS>ATOM
      1    P.3     20.1300   -8.9050   35.9130 Pac     2  U2          0.3942
      2  OP1       19.4930   -7.7770   35.1020 O.3     2  U2         -0.1425
      3  OP2       21.5860   -8.6220   36.2490 O.3     2  U2         -0.1425
      4  O5'       19.3770   -8.9380   37.3580 O.3     2  U2         -0.2926
      5  C5'       17.9840   -9.2840   37.4700 C.3     2  U2          0.1829
      6  C4'       17.2310   -8.1870   38.1890 C.3     2  U2          0.1774
      7  O4'       17.9920   -7.7320   39.3520 O.3     2  U2         -0.3307
      8  C3'       17.0030   -6.9270   37.3720 C.3     2  U2          0.1860
      9  O3'       15.8710   -7.0870   36.5140 O.3     2  U2         -0.3112
     10  C2'       16.7970   -5.8740   38.4580 C.3     2  U2          0.2309
     11  O2'       15.4720   -5.8460   38.9440 O.3     2  U2         -0.2156
     12  C1'       17.7930   -6.3320   39.5370 C.3     2  U2          0.2420
     13   N.1      19.0930   -5.6390   39.4240 N.ar    2  U2         -0.2534
     14   C.2      19.2050   -4.3590   39.9650 C.ar    2  U2          0.3546
     15   O.2      18.3250   -3.8330   40.6180 O.2     2  U2         -0.2443
     16   N.3      20.3920   -3.7230   39.7080 N.ar    2  U2         -0.1530
     17   C4       21.4670   -4.2220   38.9920 C.ar    2  U2          0.2846
     18   O4       22.3600   -3.4490   38.6350 O.2     2  U2         -0.2650
     19   C5       21.3070   -5.5690   38.5390 C.ar    2  U2          0.0814
     20   C6       20.1600   -6.2140   38.7640 C.ar    2  U2          0.0870
     21    P.3     15.4900   -5.9360   35.4460 P.3     3  G3          0.2141
     22  OP1       14.0060   -6.0130   35.3560 O.3     3  G3         -0.4373
     23  OP2       16.2990   -5.9930   34.1890 O.2     3  G3         -0.5172
     24  O5'       15.8550   -4.5770   36.1990 O.3     3  G3         -0.3114
     25  C5'       14.8700   -3.8370   36.9180 C.3     3  G3          0.1812
     26  C4'       15.2710   -2.3820   37.0050 C.3     3  G3          0.1773
     27  O4'       16.5610   -2.3010   37.6600 O.3     3  G3         -0.3307
     28  C3'       15.4550   -1.6680   35.6720 C.3     3  G3          0.1860
     29  O3'       14.2250   -1.0970   35.2280 O.3     3  G3         -0.3112
     30  C2'       16.4770   -0.5840   36.0010 C.3     3  G3          0.2309
     31  O2'       15.9160    0.5980   36.5270 O.3     3  G3         -0.2156
     32  C1'       17.3300   -1.2680   37.0690 C.3     3  G3          0.2408
     33   N9       18.5810   -1.8340   36.5570 N.ar    3  G3         -0.2693
     34   C8       18.8380   -3.1410   36.2140 C.ar    3  G3          0.1817
     35   N7       20.0660   -3.3350   35.8160 N.ar    3  G3         -0.2173
     36   C5       20.6560   -2.0820   35.8970 C.ar    3  G3          0.1748
     37   C6       21.9920   -1.6600   35.6050 C.ar    3  G3          0.3023
     38   O6       22.9590   -2.3370   35.2140 O.2     3  G3         -0.2633
     39   N.1      22.1490   -0.2940   35.8180 N.ar    3  G3         -0.1709
     40   C.2      21.1600    0.5580   36.2560 C.ar    3  G3          0.2606
     41   N.2      21.4990    1.8480   36.3940 N.pl3   3  G3         -0.0859
     42   N.3      19.9290    0.1760   36.5380 N.ar    3  G3         -0.1918
     43   C4       19.7480   -1.1430   36.3390 C.ar    3  G3          0.1723
     44    P.3     13.9310   -0.9430   33.6510 P.3     4  C4          0.2141
     45  OP1       12.5170   -0.4980   33.4940 O.3     4  C4         -0.4373
     46  OP2       14.3930   -2.1920   32.9750 O.2     4  C4         -0.5172
     47  O5'       14.8500    0.2710   33.1760 O.3     4  C4         -0.3114
     48  C5'       14.4860    1.6150   33.4680 C.3     4  C4          0.1812
     49  C4'       15.6130    2.5570   33.1260 C.3     4  C4          0.1773
     50  O4'       16.7900    2.2450   33.9250 O.3     4  C4         -0.3307
     51  C3'       16.1360    2.4850   31.7080 C.3     4  C4          0.1860
     52  O3'       15.2620    3.1410   30.7940 O.3     4  C4         -0.3112
     53  C2'       17.5000    3.1620   31.8530 C.3     4  C4          0.2309
     54  O2'       17.4500    4.5740   31.9460 O.3     4  C4         -0.2156
     55  C1'       17.9680    2.5980   33.1970 C.3     4  C4          0.2420
     56   N.1      18.8580    1.4100   33.0360 N.ar    4  C4         -0.2535
     57   C.2      20.1870    1.6050   32.6100 C.ar    4  C4          0.3532
     58   O.2      20.6210    2.7570   32.4850 O.2     4  C4         -0.2443
     59   N.3      20.9620    0.5280   32.3570 N.ar    4  C4         -0.1739
     60   C4       20.4800   -0.7010   32.5300 C.ar    4  C4          0.1759
     61   N.4      21.2590   -1.7260   32.1920 N.pl3   4  C4         -0.1070
     62   C5       19.1720   -0.9330   33.0320 C.ar    4  C4          0.0566
     63   C6       18.3980    0.1390   33.2650 C.ar    4  C4          0.0850
     64    P.3     15.1250    2.5940   29.2800 P.3     5  G5          0.2141
     65  OP1       14.0800    3.4320   28.6330 O.2     5  G5         -0.5172
     66  OP2       14.9710    1.1090   29.3070 O.3     5  G5         -0.4373
     67  O5'       16.5280    2.9280   28.5880 O.3     5  G5         -0.3114
     68  C5'       16.9730    4.2750   28.4460 C.3     5  G5          0.1812
     69  C4'       18.4600    4.3300   28.1530 C.3     5  G5          0.1773
     70  O4'       19.2060    3.6810   29.2210 O.3     5  G5         -0.3307
     71  C3'       18.9630    3.5970   26.9220 C.3     5  G5          0.1860
     72  O3'       18.7010    4.2720   25.7020 O.3     5  G5         -0.3112
     73  C2'       20.4540    3.5150   27.2110 C.3     5  G5          0.2309
     74  O2'       21.1400    4.7290   26.9870 O.3     5  G5         -0.2156
     75  C1'       20.4410    3.1910   28.7050 C.3     5  G5          0.2408
     76   N9       20.5460    1.7440   28.9270 N.ar    5  G5         -0.2693
     77   C8       19.5860    0.8410   29.3610 C.ar    5  G5          0.1817
     78   N7       20.0300   -0.3920   29.4150 N.ar    5  G5         -0.2173
     79   C5       21.3610   -0.2950   29.0050 C.ar    5  G5          0.1748
     80   C6       22.3820   -1.2970   28.8620 C.ar    5  G5          0.3023
     81   O6       22.3140   -2.5190   29.0740 O.2     5  G5         -0.2633
     82   N.1      23.5800   -0.7430   28.4190 N.ar    5  G5         -0.1709
     83   C.2      23.7850    0.5890   28.1470 C.ar    5  G5          0.2606
     84   N.2      25.0130    0.9430   27.7360 N.pl3   5  G5         -0.0859
     85   N.3      22.8580    1.5170   28.2700 N.ar    5  G5         -0.1918
     86   C4       21.6860    1.0140   28.7020 C.ar    5  G5          0.1723
     87    P.3     18.3640    3.4120   24.3860 P.3     6  U6          0.2141
     88  OP1       17.7780    4.3370   23.3830 O.2     6  U6         -0.5172
     89  OP2       17.6000    2.2020   24.7930 O.3     6  U6         -0.4373
     90  O5'       19.7930    2.9260   23.8740 O.3     6  U6         -0.3114
     91  C5'       20.8140    3.8650   23.5690 C.3     6  U6          0.1812
     92  C4'       22.1040    3.1530   23.2390 C.3     6  U6          0.1773
     93  O4'       22.6700    2.5400   24.4310 O.3     6  U6         -0.3307
     94  C3'       21.9890    1.9740   22.2980 C.3     6  U6          0.1860
     95  O3'       21.7990    2.3390   20.9470 O.3     6  U6         -0.3112
     96  C2'       23.3100    1.2770   22.5470 C.3     6  U6          0.2309
     97  O2'       24.3990    1.9770   21.9790 O.3     6  U6         -0.2156
     98  C1'       23.3720    1.3530   24.0710 C.3     6  U6          0.2420
     99   N.1      22.6930    0.1920   24.6840 N.ar    6  U6         -0.2534
    100   C.2      23.4570   -0.9190   25.0440 C.ar    6  U6          0.3546
    101   O.2      24.6610   -0.9820   24.8890 O.2     6  U6         -0.2443
    102   N.3      22.7490   -1.9570   25.5950 N.ar    6  U6         -0.1530
    103   C4       21.3890   -2.0070   25.8220 C.ar    6  U6          0.2846
    104   O4       20.8960   -3.0060   26.3400 O.2     6  U6         -0.2650
    105   C5       20.6750   -0.8390   25.4260 C.ar    6  U6          0.0814
    106   C6       21.3330    0.1940   24.8860 C.ar    6  U6          0.0870
    107    P.3     20.8110    1.4590   20.0390 P.3     7  C7          0.2141
    108  OP1       20.4870    2.2710   18.8450 O.2     7  C7         -0.5172
    109  OP2       19.7100    0.9350   20.9140 O.3     7  C7         -0.4373
    110  O5'       21.7030    0.2190   19.5790 O.3     7  C7         -0.3114
    111  C5'       22.9620    0.4120   18.9450 C.3     7  C7          0.1812
    112  C4'       23.8680   -0.7750   19.2000 C.3     7  C7          0.1773
    113  O4'       23.9170   -1.0310   20.6310 O.3     7  C7         -0.3307
    114  C3'       23.4390   -2.1340   18.6740 C.3     7  C7          0.1860
    115  O3'       23.6420   -2.3150   17.2790 O.3     7  C7         -0.3112
    116  C2'       24.3230   -3.0630   19.4950 C.3     7  C7          0.2309
    117  O2'       25.6790   -3.0850   19.0950 O.3     7  C7         -0.2156
    118  C1'       24.2520   -2.3930   20.8600 C.3     7  C7          0.2420
    119   N.1      23.2800   -3.0470   21.7490 N.ar    7  C7         -0.2535
    120   C.2      23.5860   -4.3380   22.2390 C.ar    7  C7          0.3532
    121   O.2      24.6600   -4.8770   21.9160 O.2     7  C7         -0.2443
    122   N.3      22.7130   -4.9630   23.0440 N.ar    7  C7         -0.1739
    123   C4       21.5730   -4.3640   23.3760 C.ar    7  C7          0.1759
    124   N.4      20.7330   -5.0280   24.1770 N.pl3   7  C7         -0.1070
    125   C5       21.2380   -3.0570   22.9030 C.ar    7  C7          0.0566
    126   C6       22.1130   -2.4410   22.1000 C.ar    7  C7          0.0850
    127    P.3     22.5880   -3.1960   16.4450 P.3     8  A8          0.2141
    128  OP1       22.9150   -3.1330   14.9990 O.2     8  A8         -0.5172
    129  OP2       21.2200   -2.8340   16.9150 O.3     8  A8         -0.4373
    130  O5'       22.8520   -4.6910   16.9120 O.3     8  A8         -0.3114
    131  C5'       24.0310   -5.3740   16.5340 C.3     8  A8          0.1812
    132  C4'       24.0520   -6.7520   17.1480 C.3     8  A8          0.1773
    133  O4'       23.8930   -6.6200   18.5830 O.3     8  A8         -0.3307
    134  C3'       22.9200   -7.6890   16.7790 C.3     8  A8          0.1860
    135  O3'       23.1230   -8.2990   15.5050 O.3     8  A8         -0.3112
    136  C2'       22.9820   -8.7040   17.9160 C.3     8  A8          0.2309
    137  O2'       23.9990   -9.6770   17.7370 O.3     8  A8         -0.2156
    138  C1'       23.3210   -7.8040   19.1060 C.3     8  A8          0.2408
    139   N9       22.1920   -7.4530   19.9650 N.ar    8  A8         -0.2693
    140   C8       21.5430   -6.2450   20.0820 C.ar    8  A8          0.1816
    141   N7       20.5150   -6.2740   20.8990 N.ar    8  A8         -0.2193
    142   C5       20.4970   -7.5860   21.3630 C.ar    8  A8          0.1518
    143   C6       19.6380   -8.2640   22.2370 C.ar    8  A8          0.1919
    144   N6       18.5870   -7.6970   22.8210 N.pl3   8  A8         -0.1054
    145   N.1      19.8970   -9.5600   22.4930 N.ar    8  A8         -0.2040
    146   C.2      20.9470  -10.1290   21.9050 C.ar    8  A8          0.2016
    147   N.3      21.8280   -9.6010   21.0550 N.ar    8  A8         -0.2048
    148   C4       21.5390   -8.3120   20.8180 C.ar    8  A8          0.1692
    149    P.3     21.8590   -8.5490   14.5260 P.3     9  C9          0.2141
    150  OP1       22.3560   -8.7790   13.1360 O.2     9  C9         -0.5172
    151  OP2       20.8720   -7.4560   14.7820 O.3     9  C9         -0.4373
    152  O5'       21.1950   -9.9070   15.0520 O.3     9  C9         -0.3114
    153  C5'       21.9680  -11.0970   15.2930 C.3     9  C9          0.1812
    154  C4'       21.1540  -12.1030   16.0960 C.3     9  C9          0.1773
    155  O4'       21.0960  -11.7310   17.5010 O.3     9  C9         -0.3307
    156  C3'       19.6950  -12.2030   15.7030 C.3     9  C9          0.1860
    157  O3'       19.5210  -12.9990   14.5620 O.3     9  C9         -0.3112
    158  C2'       19.0540  -12.8120   16.9370 C.3     9  C9          0.2309
    159  O2'       19.2040  -14.2170   17.0090 O.3     9  C9         -0.2156
    160  C1'       19.8370  -12.1110   18.0480 C.3     9  C9          0.2420
    161   N.1      19.1610  -10.8890   18.5360 N.ar    9  C9         -0.2535
    162   C.2      18.1770  -11.0000   19.5280 C.ar    9  C9          0.3532
    163   O.2      17.9390  -12.1210   20.0180 O.2     9  C9         -0.2443
    164   N.3      17.5140   -9.8790   19.9280 N.ar    9  C9         -0.1739
    165   C4       17.8010   -8.6930   19.3760 C.ar    9  C9          0.1759
    166   N.4      17.0950   -7.6210   19.7570 N.pl3   9  C9         -0.1070
    167   C5       18.8180   -8.5540   18.3960 C.ar    9  C9          0.0566
    168   C6       19.4690   -9.6650   18.0120 C.ar    9  C9          0.0850
    169    P.3     18.3500  -12.6400   13.5410 P.3    10  G10         0.2141
    170  OP1       18.6250  -13.4530   12.3340 O.2    10  G10        -0.5172
    171  OP2       18.2470  -11.1600   13.4310 O.3    10  G10        -0.4373
    172  O5'       17.0380  -13.1970   14.2550 O.3    10  G10        -0.3114
    173  C5'       16.8860  -14.5940   14.4840 C.3    10  G10         0.1812
    174  C4'       15.7000  -14.8630   15.3720 C.3    10  G10         0.1773
    175  O4'       15.9090  -14.2940   16.6920 O.3    10  G10        -0.3307
    176  C3'       14.4060  -14.2290   14.9270 C.3    10  G10         0.1860
    177  O3'       13.8320  -14.9750   13.8750 O.3    10  G10        -0.3112
    178  C2'       13.6050  -14.2780   16.2150 C.3    10  G10         0.2309
    179  O2'       13.2000  -15.5890   16.5450 O.3    10  G10        -0.2156
    180  C1'       14.6680  -13.8410   17.2170 C.3    10  G10         0.2408
    181   N9       14.7340  -12.3910   17.4120 N.ar   10  G10        -0.2693
    182   C8       15.6900  -11.5180   16.9470 C.ar   10  G10         0.1817
    183   N7       15.4810  -10.2810   17.3180 N.ar   10  G10        -0.2173
    184   C5       14.3120  -10.3380   18.0610 C.ar   10  G10         0.1748
    185   C6       13.5960   -9.3110   18.7220 C.ar   10  G10         0.3023
    186   O6       13.8540   -8.0930   18.7740 O.2    10  G10        -0.2633
    187   N.1      12.4680   -9.8170   19.3740 N.ar   10  G10        -0.1709
    188   C.2      12.0820  -11.1390   19.3840 C.ar   10  G10         0.2606
    189   N.2      10.9750  -11.4430   20.0770 N.pl3  10  G10        -0.0859
    190   N.3      12.7370  -12.0970   18.7620 N.ar   10  G10        -0.1918
    191   C4       13.8360  -11.6310   18.1280 C.ar   10  G10         0.1723
    192    P.3     13.1040  -14.2070   12.6700 P.3    11  C11         0.2141
    193  OP1       13.0760  -15.1700   11.5480 O.2    11  C11        -0.5172
    194  OP2       13.7610  -12.8760   12.4880 O.3    11  C11        -0.4373
    195  O5'       11.6160  -14.0030   13.2020 O.3    11  C11        -0.3114
    196  C5'       10.8820  -15.0980   13.7380 C.3    11  C11         0.1812
    197  C4'        9.7110  -14.5990   14.5460 C.3    11  C11         0.1773
    198  O4'       10.1700  -13.9900   15.7760 O.3    11  C11        -0.3307
    199  C3'        8.9140  -13.5020   13.8780 C.3    11  C11         0.1860
    200  O3'        8.0110  -14.0110   12.9180 O.3    11  C11        -0.3112
    201  C2'        8.2300  -12.8320   15.0560 C.3    11  C11         0.2309
    202  O2'        7.0830  -13.5040   15.5190 O.3    11  C11        -0.2156
    203  C1'        9.3400  -12.8870   16.1030 C.3    11  C11         0.2420
    204   N.1      10.1360  -11.6490   16.0850 N.ar   11  C11        -0.2535
    205   C.2       9.7090  -10.5760   16.8790 C.ar   11  C11         0.3532
    206   O.2       8.6900  -10.7160   17.5860 O.2    11  C11        -0.2443
    207   N.3      10.4080   -9.4220   16.8570 N.ar   11  C11        -0.1739
    208   C4       11.4860   -9.3130   16.0850 C.ar   11  C11         0.1759
    209   N.4      12.1300   -8.1540   16.0910 N.pl3  11  C11        -0.1070
    210   C5       11.9490  -10.3860   15.2750 C.ar   11  C11         0.0566
    211   C6       11.2530  -11.5270   15.3060 C.ar   11  C11         0.0850
    212    P.3      7.5350  -13.0620   11.7210 P.3    12  C12         0.2141
    213  OP1        6.7180  -13.8960   10.8100 O.2    12  C12        -0.5172
    214  OP2        8.6900  -12.2970   11.1710 O.3    12  C12        -0.4373
    215  O5'        6.5680  -12.0530   12.4730 O.3    12  C12        -0.3114
    216  C5'        5.3840  -12.5300   13.0970 C.3    12  C12         0.1812
    217  C4'        4.6740  -11.4020   13.7940 C.3    12  C12         0.1773
    218  O4'        5.5050  -10.9630   14.9010 O.3    12  C12        -0.3307
    219  C3'        4.4640  -10.1250   12.9860 C.3    12  C12         0.1860
    220  O3'        3.3620  -10.1270   12.0740 O.3    12  C12        -0.3112
    221  C2'        4.2710   -9.1150   14.0980 C.3    12  C12         0.2309
    222  O2'        2.9940   -9.2270   14.6970 O.3    12  C12        -0.2156
    223  C1'        5.3700   -9.5580   15.0660 C.3    12  C12         0.2420
    224   N.1       6.6540   -8.8900   14.7640 N.ar   12  C12        -0.2535
    225   C.2       6.8620   -7.5900   15.2660 C.ar   12  C12         0.3532
    226   O.2       5.9910   -7.0720   16.0070 O.2    12  C12        -0.2443
    227   N.3       7.9950   -6.9330   14.9340 N.ar   12  C12        -0.1739
    228   C4        8.8960   -7.5150   14.1480 C.ar   12  C12         0.1759
    229   N.4       9.9650   -6.8070   13.8180 N.pl3  12  C12        -0.1070
    230   C5        8.7340   -8.8390   13.6600 C.ar   12  C12         0.0566
    231   C6        7.6110   -9.4880   13.9910 C.ar   12  C12         0.0850
    232    P.3      3.3750   -9.1050   10.8210 P.3    13  G13         0.2141
    233  OP1        2.1610   -9.3450   10.0090 O.2    13  G13        -0.5172
    234  OP2        4.7180   -9.1440   10.1610 O.3    13  G13        -0.4373
    235  O5'        3.2230   -7.6740   11.5020 O.3    13  G13        -0.3114
    236  C5'        2.0230   -7.3010   12.1640 C.3    13  G13         0.1812
    237  C4'        2.0680   -5.8410   12.5480 C.3    13  G13         0.1773
    238  O4'        3.1010   -5.6430   13.5560 O.3    13  G13        -0.3307
    239  C3'        2.4600   -4.8580   11.4540 C.3    13  G13         0.1860
    240  O3'        1.4050   -4.5260   10.5600 O.3    13  G13        -0.3112
    241  C2'        2.9170   -3.6640   12.2780 C.3    13  G13         0.2309
    242  O2'        1.8430   -2.9300   12.8490 O.3    13  G13        -0.2156
    243  C1'        3.7210   -4.3730   13.3700 C.3    13  G13         0.2408
    244   N9        5.1200   -4.5580   12.9680 N.ar   13  G13        -0.2693
    245   C8        5.7340   -5.7050   12.5140 C.ar   13  G13         0.1817
    246   N7        6.9990   -5.5280   12.2190 N.ar   13  G13        -0.2173
    247   C5        7.2380   -4.1830   12.4980 C.ar   13  G13         0.1748
    248   C6        8.4340   -3.4010   12.3770 C.ar   13  G13         0.3023
    249   O6        9.5470   -3.7570   11.9790 O.2    13  G13        -0.2633
    250   N.1       8.2270   -2.0750   12.7770 N.ar   13  G13        -0.1709
    251   C.2       7.0270   -1.5610   13.2210 C.ar   13  G13         0.2606
    252   N.2       7.0040   -0.2550   13.5510 N.pl3  13  G13        -0.0859
    253   N.3       5.9160   -2.2740   13.3350 N.ar   13  G13        -0.1918
    254   C4        6.0920   -3.5690   12.9610 C.ar   13  G13         0.1723
    255    P.3      1.7550   -4.1140    9.0430 P.3    14  G14         0.2141
    256  OP1        0.5150   -4.2550    8.2330 O.2    14  G14        -0.5172
    257  OP2        2.9850   -4.8410    8.6300 O.3    14  G14        -0.4373
    258  O5'        2.1520   -2.5700    9.1280 O.3    14  G14        -0.3114
    259  C5'        1.2470   -1.5740    9.6160 C.3    14  G14         0.1812
    260  C4'        1.9870   -0.2690    9.8200 C.3    14  G14         0.1773
    261  O4'        3.0560   -0.4900   10.7880 O.3    14  G14        -0.3307
    262  C3'        2.7160    0.2520    8.5890 C.3    14  G14         0.1860
    263  O3'        1.8750    0.9780    7.6990 O.3    14  G14        -0.3112
    264  C2'        3.8510    1.0900    9.1850 C.3    14  G14         0.2309
    265  O2'        3.5580    2.4400    9.5100 O.3    14  G14        -0.2156
    266  C1'        4.2080    0.2770   10.4320 C.3    14  G14         0.2408
    267   N9        5.3160   -0.6330   10.1550 N.ar   14  G14        -0.2693
    268   C8        5.2540   -1.9970    9.9930 C.ar   14  G14         0.1817
    269   N7        6.4040   -2.5280    9.6800 N.ar   14  G14        -0.2173
    270   C5        7.2820   -1.4540    9.6480 C.ar   14  G14         0.1748
    271   C6        8.6550   -1.4160    9.3480 C.ar   14  G14         0.3023
    272   O6        9.3920   -2.3560    9.0230 O.2    14  G14        -0.2633
    273   N.1       9.1680   -0.1230    9.4430 N.ar   14  G14        -0.1709
    274   C.2       8.4420    0.9930    9.7770 C.ar   14  G14         0.2606
    275   N.2       9.1240    2.1510    9.8390 N.pl3  14  G14        -0.0859
    276   N.3       7.1440    0.9720   10.0380 N.ar   14  G14        -0.1918
    277   C4        6.6340   -0.2790    9.9590 C.ar   14  G14         0.1723
    278    P.3      2.2530    1.0500    6.1340 P.3    15  C15         0.2141
    279  OP1        1.0910    1.6850    5.4590 O.2    15  C15        -0.5172
    280  OP2        2.7330   -0.2810    5.6660 O.3    15  C15        -0.4373
    281  O5'        3.5060    2.0380    6.0670 O.3    15  C15        -0.3114
    282  C5'        3.3500    3.4440    6.2260 C.3    15  C15         0.1812
    283  C4'        4.6680    4.1520    5.9970 C.3    15  C15         0.1773
    284  O4'        5.6380    3.6760    6.9710 O.3    15  C15        -0.3307
    285  C3'        5.3610    3.8990    4.6690 C.3    15  C15         0.1860
    286  O3'        4.8720    4.6950    3.6050 O.3    15  C15        -0.3112
    287  C2'        6.8040    4.2530    4.9920 C.3    15  C15         0.2309
    288  O2'        7.0430    5.6450    5.0060 O.3    15  C15        -0.2156
    289  C1'        6.9400    3.6580    6.3930 C.3    15  C15         0.2420
    290   N.1       7.4130    2.2570    6.3490 N.ar   15  C15        -0.2535
    291   C.2       8.7700    1.9940    6.0910 C.ar   15  C15         0.3532
    292   O.2       9.5530    2.9410    5.9360 O.2    15  C15        -0.2443
    293   N.3       9.1880    0.7100    6.0130 N.ar   15  C15        -0.1739
    294   C4        8.3160   -0.2910    6.1750 C.ar   15  C15         0.1759
    295   N.4       8.7640   -1.5440    6.0620 N.pl3  15  C15        -0.1070
    296   C5        6.9410   -0.0530    6.4540 C.ar   15  C15         0.0566
    297   C6        6.5380    1.2220    6.5370 C.ar   15  C15         0.0850
    298    P.3      5.0690    4.1860    2.1060 P.3    16  G16         0.2141
    299  OP1        4.4240    5.1310    1.1690 O.2    16  G16        -0.5172
    300  OP2        4.6600    2.7580    2.1100 O.3    16  G16        -0.4373
    301  O5'        6.6370    4.2580    1.8700 O.3    16  G16        -0.3114
    302  C5'        7.2730    5.5080    1.6700 C.3    16  G16         0.1812
    303  C4'        8.6950    5.2990    1.2200 C.3    16  G16         0.1773
    304  O4'        9.4510    4.6500    2.2780 O.3    16  G16        -0.3307
    305  C3'        8.8900    4.3730    0.0320 C.3    16  G16         0.1860
    306  O3'        8.6760    5.0380   -1.2020 O.3    16  G16        -0.3112
    307  C2'       10.3490    3.9870    0.1940 C.3    16  G16         0.2309
    308  O2'       11.2140    5.0350   -0.1920 O.3    16  G16        -0.2156
    309  C1'       10.4270    3.7900    1.7080 C.3    16  G16         0.2408
    310   N9       10.1300    2.4210    2.1520 N.ar   16  G16        -0.2693
    311   C8        8.9070    1.9420    2.5680 C.ar   16  G16         0.1817
    312   N7        8.9290    0.6770    2.8950 N.ar   16  G16        -0.2173
    313   C5       10.2440    0.2880    2.6880 C.ar   16  G16         0.1748
    314   C6       10.8640   -0.9810    2.8640 C.ar   16  G16         0.3023
    315   O6       10.3570   -2.0470    3.2490 O.2    16  G16        -0.2633
    316   N.1      12.2140   -0.9340    2.5350 N.ar   16  G16        -0.1709
    317   C.2      12.8840    0.1850    2.0870 C.ar   16  G16         0.2606
    318   N.2      14.1880    0.0260    1.8090 N.pl3  16  G16        -0.0859
    319   N.3      12.3180    1.3710    1.9180 N.ar   16  G16        -0.1918
    320   C4       11.0050    1.3520    2.2330 C.ar   16  G16         0.1723
    321    P.3      8.0650    4.2280   -2.4360 P.3    17  A17         0.2141
    322  OP1        6.7300    4.8260   -2.6940 O.2    17  A17        -0.5172
    323  OP2        8.1780    2.7690   -2.1730 O.3    17  A17        -0.4373
    324  O5'        9.0550    4.5900   -3.6250 O.3    17  A17        -0.3114
    325  C5'        9.4940    5.9270   -3.8280 C.3    17  A17         0.1812
    326  C4'       10.9520    5.9470   -4.2260 C.3    17  A17         0.1773
    327  O4'       11.8000    5.6230   -3.0910 O.3    17  A17        -0.3307
    328  C3'       11.3910    4.9160   -5.2480 C.3    17  A17         0.1860
    329  O3'       10.9790    5.2340   -6.5730 O.3    17  A17        -0.3112
    330  C2'       12.9040    4.9520   -5.0810 C.3    17  A17         0.2309
    331  O2'       13.4960    6.0690   -5.6700 O.3    17  A17        -0.2156
    332  C1'       13.0410    5.1290   -3.5720 C.3    17  A17         0.2408
    333   N9       13.3760    3.8750   -2.9020 N.ar   17  A17        -0.2693
    334   C8       12.6890    3.1750   -1.9420 C.ar   17  A17         0.1816
    335   N7       13.2940    2.0780   -1.5520 N.ar   17  A17        -0.2193
    336   C5       14.4580    2.0520   -2.3090 C.ar   17  A17         0.1518
    337   C6       15.5370    1.1410   -2.3710 C.ar   17  A17         0.1919
    338   N6       15.6250    0.0370   -1.6210 N.pl3  17  A17        -0.1054
    339   N.1      16.5350    1.4100   -3.2430 N.ar   17  A17        -0.2040
    340   C.2      16.4480    2.5190   -3.9960 C.ar   17  A17         0.2016
    341   N.3      15.4910    3.4490   -4.0260 N.ar   17  A17        -0.2048
    342   C4       14.5170    3.1520   -3.1480 C.ar   17  A17         0.1692
    343    P.3     10.4440    4.0600   -7.5400 P.3    18  A18         0.2141
    344  OP1       10.1730    4.6970   -8.8550 O.2    18  A18        -0.5172
    345  OP2        9.3560    3.3120   -6.8550 O.3    18  A18        -0.4373
    346  O5'       11.6860    3.0620   -7.6750 O.3    18  A18        -0.3114
    347  C5'       12.7510    3.3310   -8.5830 C.3    18  A18         0.1812
    348  C4'       13.8520    2.3060   -8.4350 C.3    18  A18         0.1773
    349  O4'       14.3550    2.3520   -7.0720 O.3    18  A18        -0.3307
    350  C3'       13.4920    0.8370   -8.6320 C.3    18  A18         0.1860
    351  O3'       13.4160    0.4490  -10.0090 O.3    18  A18        -0.3112
    352  C2'       14.6420    0.1490   -7.9060 C.3    18  A18         0.2309
    353  O2'       15.8510    0.0810   -8.6380 O.3    18  A18        -0.2156
    354  C1'       14.8050    1.0600   -6.6880 C.3    18  A18         0.2408
    355   N9       13.9520    0.5810   -5.5980 N.ar   18  A18        -0.2693
    356   C8       12.7320    1.0740   -5.1820 C.ar   18  A18         0.1816
    357   N7       12.1820    0.3780   -4.2150 N.ar   18  A18        -0.2193
    358   C5       13.1040   -0.6340   -3.9660 C.ar   18  A18         0.1518
    359   C6       13.1090   -1.7110   -3.0570 C.ar   18  A18         0.1919
    360   N6       12.1150   -1.9610   -2.2000 N.pl3  18  A18        -0.1054
    361   N.1      14.1840   -2.5350   -3.0630 N.ar   18  A18        -0.2040
    362   C.2      15.1770   -2.2880   -3.9260 C.ar   18  A18         0.2016
    363   N.3      15.2880   -1.3140   -4.8280 N.ar   18  A18        -0.2048
    364   C4       14.2060   -0.5120   -4.7990 C.ar   18  A18         0.1692
    365    P.3     12.2040   -0.5080  -10.4920 P.3    19  G19         0.2141
    366  OP1       11.9440   -0.2160  -11.9250 O.2    19  G19        -0.5172
    367  OP2       11.0840   -0.4230   -9.5100 O.3    19  G19        -0.4373
    368  O5'       12.7850   -1.9840  -10.3820 O.3    19  G19        -0.3114
    369  C5'       14.1230   -2.2730  -10.7510 C.3    19  G19         0.1812
    370  C4'       14.6610   -3.3840   -9.8920 C.3    19  G19         0.1773
    371  O4'       14.6100   -2.9650   -8.5030 O.3    19  G19        -0.3307
    372  C3'       13.8260   -4.6510   -9.8780 C.3    19  G19         0.1860
    373  O3'       14.0300   -5.4630  -11.0240 O.3    19  G19        -0.3112
    374  C2'       14.2820   -5.3220   -8.5910 C.3    19  G19         0.2309
    375  O2'       15.4890   -6.0470   -8.7290 O.3    19  G19        -0.2156
    376  C1'       14.4530   -4.1080   -7.6700 C.3    19  G19         0.2408
    377   N9       13.2940   -3.9120   -6.8070 N.ar   19  G19        -0.2693
    378   C8       12.3280   -2.9340   -6.8910 C.ar   19  G19         0.1817
    379   N7       11.4010   -3.0540   -5.9800 N.ar   19  G19        -0.2173
    380   C5       11.7830   -4.1710   -5.2490 C.ar   19  G19         0.1748
    381   C6       11.1720   -4.7880   -4.1410 C.ar   19  G19         0.3023
    382   O6       10.1300   -4.4700   -3.5660 O.2    19  G19        -0.2633
    383   N.1      11.8990   -5.8930   -3.7060 N.ar   19  G19        -0.1709
    384   C.2      13.0630   -6.3500   -4.2770 C.ar   19  G19         0.2606
    385   N.2      13.6200   -7.4390   -3.7230 N.pl3  19  G19        -0.0859
    386   N.3      13.6380   -5.7830   -5.3140 N.ar   19  G19        -0.1918
    387   C4       12.9510   -4.7060   -5.7440 C.ar   19  G19         0.1723
    388    P.3     12.7960   -6.3060  -11.6160 P.3    20  U20         0.2141
    389  OP1       13.0690   -6.6170  -13.0440 O.2    20  U20        -0.5172
    390  OP2       11.5480   -5.5840  -11.2580 O.3    20  U20        -0.4373
    391  O5'       12.8510   -7.6620  -10.7790 O.3    20  U20        -0.3114
    392  C5'       13.9120   -8.5950  -10.9620 C.3    20  U20         0.1812
    393  C4'       13.7140   -9.7900  -10.0600 C.3    20  U20         0.1773
    394  O4'       13.8190   -9.3470   -8.6810 O.3    20  U20        -0.3307
    395  C3'       12.3440  -10.4530  -10.1340 C.3    20  U20         0.1860
    396  O3'       12.2060  -11.3860  -11.2070 O.3    20  U20        -0.3112
    397  C2'       12.2190  -11.1170   -8.7680 C.3    20  U20         0.2309
    398  O2'       12.8180  -12.3920   -8.6790 O.3    20  U20        -0.2156
    399  C1'       12.9200  -10.0930   -7.8750 C.3    20  U20         0.2420
    400   N.1      11.9450   -9.1470   -7.3010 N.ar   20  U20        -0.2534
    401   C.2      11.2590   -9.5170   -6.1570 C.ar   20  U20         0.3546
    402   O.2      11.4430  -10.5800   -5.5810 O.2    20  U20        -0.2443
    403   N.3      10.3470   -8.5890   -5.7090 N.ar   20  U20        -0.1530
    404   C4       10.0630   -7.3570   -6.2700 C.ar   20  U20         0.2846
    405   O4        9.1840   -6.6490   -5.7770 O.2    20  U20        -0.2650
    406   C5       10.8220   -7.0460   -7.4320 C.ar   20  U20         0.0814
    407   C6       11.7110   -7.9240   -7.8960 C.ar   20  U20         0.0870
    408    P.3     10.7370  -11.9180  -11.6020 P.3    21  C21         0.2141
    409  OP1       10.8530  -13.0860  -12.5160 O.2    21  C21        -0.5172
    410  OP2        9.8950  -10.7560  -11.9920 O.3    21  C21        -0.4373
    411  O5'       10.1890  -12.4740  -10.2250 O.3    21  C21        -0.3114
    412  C5'       10.4370  -13.8070   -9.8330 C.3    21  C21         0.1812
    413  C4'        9.3150  -14.2680   -8.9690 C.3    21  C21         0.1773
    414  O4'        9.3270  -13.4340   -7.7870 O.3    21  C21        -0.3307
    415  C3'        7.9510  -13.9660   -9.5700 C.3    21  C21         0.1860
    416  O3'        7.5070  -14.8780  -10.5360 O.3    21  C21        -0.3112
    417  C2'        7.0670  -13.8980   -8.3520 C.3    21  C21         0.2309
    418  O2'        6.7580  -15.1420   -7.7620 O.3    21  C21        -0.2156
    419  C1'        7.9900  -13.1160   -7.4350 C.3    21  C21         0.2420
    420   N.1       7.7910  -11.6510   -7.5230 N.ar   21  C21        -0.2535
    421   C.2       6.6540  -11.0920   -6.9220 C.ar   21  C21         0.3532
    422   O.2       5.8510  -11.8390   -6.3440 O.2    21  C21        -0.2443
    423   N.3       6.4580   -9.7550   -6.9910 N.ar   21  C21        -0.1739
    424   C4        7.3390   -8.9830   -7.6290 C.ar   21  C21         0.1759
    425   N.4       7.1020   -7.6690   -7.6730 N.pl3  21  C21        -0.1070
    426   C5        8.5010   -9.5230   -8.2500 C.ar   21  C21         0.0566
    427   C6        8.6880  -10.8480   -8.1740 C.ar   21  C21         0.0850
    428    P.3      6.7790  -14.3080  -11.8350 P.3    22  G22         0.2141
    429  OP1        6.8700  -15.3770  -12.8550 O.2    22  G22        -0.5172
    430  OP2        7.3330  -12.9580  -12.1170 O.3    22  G22        -0.4373
    431  O5'        5.2670  -14.1450  -11.3880 O.3    22  G22        -0.3114
    432  C5'        4.5000  -15.2950  -11.1090 C.3    22  G22         0.1812
    433  C4'        3.3550  -14.9620  -10.1930 C.3    22  G22         0.1773
    434  O4'        3.8640  -14.2740   -9.0070 O.3    22  G22        -0.3307
    435  C3'        2.2870  -14.0130  -10.7100 C.3    22  G22         0.1860
    436  O3'        1.6180  -14.5170  -11.9070 O.3    22  G22        -0.3112
    437  C2'        1.6260  -13.6090   -9.3900 C.3    22  G22         0.2309
    438  O2'        0.8250  -14.6110   -8.7940 O.3    22  G22        -0.2156
    439  C1'        2.8770  -13.3710   -8.5190 C.3    22  G22         0.2408
    440   N9        3.4120  -12.0180   -8.6780 N.ar   22  G22        -0.2693
    441   C8        4.6240  -11.6650   -9.2320 C.ar   22  G22         0.1817
    442   N7        4.8260  -10.3760   -9.2450 N.ar   22  G22        -0.2173
    443   C5        3.6830   -9.8440   -8.6650 C.ar   22  G22         0.1748
    444   C6        3.3250   -8.4970   -8.4110 C.ar   22  G22         0.3023
    445   O6        3.9720   -7.4660   -8.6550 O.2    22  G22        -0.2633
    446   N.1       2.0680   -8.4080   -7.8160 N.ar   22  G22        -0.1709
    447   C.2       1.2600   -9.4780   -7.5070 C.ar   22  G22         0.2606
    448   N.2       0.0790   -9.1950   -6.9490 N.pl3  22  G22        -0.0859
    449   N.3       1.5860  -10.7350   -7.7330 N.ar   22  G22        -0.1918
    450   C4        2.8000  -10.8460   -8.3100 C.ar   22  G22         0.1723
    451    P.3      0.0500  -14.9490  -11.9390 P.3    23  C23         0.2141
    452  OP1       -0.0680  -16.4060  -11.6660 O.3    23  C23        -0.4373
    453  OP2       -0.4940  -14.4080  -13.2110 O.2    23  C23        -0.5172
    454  O5'       -0.6970  -14.1740  -10.7760 O.3    23  C23        -0.3114
    455  C5'       -2.0830  -14.4060  -10.5430 C.3    23  C23         0.1813
    456  C4'       -2.8470  -13.1280  -10.7380 C.3    23  C23         0.1801
    457  O4'       -2.2070  -12.1160   -9.9180 O.3    23  C23        -0.3306
    458  C3'       -2.7720  -12.5160  -12.1280 C.3    23  C23         0.2161
    459  O3'       -3.5590  -13.1430  -13.1520 O.3    23  C23        -0.2175
    460  C2'       -3.1130  -11.0560  -11.8510 C.3    23  C23         0.2338
    461  O2'       -4.5080  -10.8210  -11.7680 O.3    23  C23        -0.2155
    462  C1'       -2.4250  -10.8390  -10.4910 C.3    23  C23         0.2421
    463   N.1      -1.1450  -10.0980  -10.5860 N.ar   23  C23        -0.2535
    464   C.2      -1.1270   -8.7340  -10.2230 C.ar   23  C23         0.3532
    465   O.2      -2.1640   -8.2100   -9.7760 O.2    23  C23        -0.2443
    466   N.3       0.0190   -8.0280  -10.3640 N.ar   23  C23        -0.1739
    467   C4        1.1170   -8.6230  -10.8340 C.ar   23  C23         0.1759
    468   N.4       2.2160   -7.8760  -10.9810 N.pl3  23  C23        -0.1070
    469   C5        1.1380  -10.0090  -11.1810 C.ar   23  C23         0.0566
    470   C6       -0.0030  -10.7020  -11.0420 C.ar   23  C23         0.0850
    471    P.3      5.9910    5.4150  -12.1460 Pac    25  U25         0.3942
    472  OP1        7.4790    5.4400  -12.4760 O.3    25  U25        -0.1425
    473  OP2        5.4220    6.7930  -11.7920 O.3    25  U25        -0.1425
    474  O5'        5.8410    4.5030  -10.7980 O.3    25  U25        -0.2926
    475  C5'        5.0570    3.3040  -10.8160 C.3    25  U25         0.1829
    476  C4'        3.6450    3.6250  -11.2270 C.3    25  U25         0.1774
    477  O4'        3.3890    3.1940  -12.5930 O.3    25  U25        -0.3307
    478  C3'        2.6260    2.8860  -10.4050 C.3    25  U25         0.1860
    479  O3'        2.4350    3.5640   -9.1770 O.3    25  U25        -0.3112
    480  C2'        1.4130    2.8500  -11.3260 C.3    25  U25         0.2309
    481  O2'        0.6650    4.0380  -11.3670 O.3    25  U25        -0.2156
    482  C1'        2.0820    2.6320  -12.6840 C.3    25  U25         0.2420
    483   N.1       2.2050    1.2110  -13.0650 N.ar   25  U25        -0.2534
    484   C.2       1.0730    0.3940  -12.9900 C.ar   25  U25         0.3546
    485   O.2      -0.0160    0.7880  -12.6060 O.2    25  U25        -0.2443
    486   N.3       1.2750   -0.9100  -13.3720 N.ar   25  U25        -0.1530
    487   C4        2.4610   -1.4830  -13.8050 C.ar   25  U25         0.2846
    488   O4        2.4850   -2.6790  -14.1340 O.2    25  U25        -0.2650
    489   C5        3.5720   -0.5830  -13.8440 C.ar   25  U25         0.0814
    490   C6        3.4110    0.6970  -13.4870 C.ar   25  U25         0.0870
    491    P.3      1.7520    2.7880   -7.9570 P.3    26  G26         0.2141
    492  OP1        1.6720    3.6600   -6.7440 O.3    26  G26        -0.4373
    493  OP2        2.3800    1.4360   -7.8500 O.2    26  G26        -0.5172
    494  O5'        0.2580    2.6030   -8.4810 O.3    26  G26        -0.3114
    495  C5'       -0.8640    2.8830   -7.6460 C.3    26  G26         0.1812
    496  C4'       -1.7750    1.6840   -7.5980 C.3    26  G26         0.1773
    497  O4'       -1.6830    1.0420   -8.9010 O.3    26  G26        -0.3307
    498  C3'       -1.3770    0.5670   -6.6340 C.3    26  G26         0.1860
    499  O3'       -1.8180    0.7730   -5.2810 O.3    26  G26        -0.3112
    500  C2'       -2.0500   -0.6480   -7.2590 C.3    26  G26         0.2309
    501  O2'       -3.4060   -0.8120   -6.9080 O.3    26  G26        -0.2156
    502  C1'       -1.8770   -0.3500   -8.7500 C.3    26  G26         0.2408
    503   N9       -0.7670   -1.0740   -9.3610 N.ar   26  G26        -0.2693
    504   C8        0.3490   -0.5490   -9.9710 C.ar   26  G26         0.1817
    505   N7        1.1810   -1.4620  -10.3950 N.ar   26  G26        -0.2173
    506   C5        0.5750   -2.6620  -10.0490 C.ar   26  G26         0.1748
    507   C6        1.0040   -4.0050  -10.2540 C.ar   26  G26         0.3023
    508   O6        2.0520   -4.4150  -10.7940 O.2    26  G26        -0.2633
    509   N.1       0.0710   -4.9150   -9.7570 N.ar   26  G26        -0.1709
    510   C.2      -1.1180   -4.5790   -9.1460 C.ar   26  G26         0.2606
    511   N.2      -1.8880   -5.6010   -8.7490 N.pl3  26  G26        -0.0859
    512   N.3      -1.5210   -3.3350   -8.9450 N.ar   26  G26        -0.1918
    513   C4       -0.6340   -2.4360   -9.4190 C.ar   26  G26         0.1723
    514    P.3     -0.9250    0.2220   -4.0470 P.3    27  C27         0.2141
    515  OP1       -1.4330    0.8530   -2.7990 O.3    27  C27        -0.4373
    516  OP2        0.5250    0.3760   -4.4150 O.2    27  C27        -0.5172
    517  O5'       -1.3270   -1.3200   -3.9310 O.3    27  C27        -0.3114
    518  C5'       -2.5630   -1.7110   -3.3200 C.3    27  C27         0.1812
    519  C4'       -2.6970   -3.2260   -3.2870 C.3    27  C27         0.1773
    520  O4'       -2.5950   -3.7510   -4.6360 O.3    27  C27        -0.3307
    521  C3'       -1.6560   -4.0020   -2.4940 C.3    27  C27         0.1860
    522  O3'       -2.0860   -4.1220   -1.1390 O.3    27  C27        -0.3112
    523  C2'       -1.6890   -5.3790   -3.1490 C.3    27  C27         0.2309
    524  O2'       -2.6950   -6.2080   -2.6200 O.3    27  C27        -0.2156
    525  C1'       -2.0150   -5.0450   -4.6070 C.3    27  C27         0.2420
    526   N.1      -0.8280   -5.0630   -5.4770 N.ar   27  C27        -0.2535
    527   C.2      -0.3020   -6.3020   -5.8630 C.ar   27  C27         0.3532
    528   O.2      -0.8590   -7.3380   -5.4700 O.2    27  C27        -0.2443
    529   N.3       0.7980   -6.3410   -6.6470 N.ar   27  C27        -0.1739
    530   C4        1.3750   -5.2050   -7.0430 C.ar   27  C27         0.1759
    531   N.4       2.4710   -5.2910   -7.8080 N.pl3  27  C27        -0.1070
    532   C5        0.8580   -3.9280   -6.6730 C.ar   27  C27         0.0566
    533   C6       -0.2370   -3.9040   -5.8990 C.ar   27  C27         0.0850
    534    P.3     -1.0670   -3.8000    0.0750 P.3    28  G28         0.2141
    535  OP1       -1.8370   -3.7990    1.3570 O.3    28  G28        -0.4373
    536  OP2       -0.2900   -2.5780   -0.3100 O.2    28  G28        -0.5172
    537  O5'       -0.0950   -5.0690    0.1240 O.3    28  G28        -0.3114
    538  C5'       -0.4640   -6.2360    0.8610 C.3    28  G28         0.1812
    539  C4'       -0.1340   -7.4890    0.0820 C.3    28  G28         0.1773
    540  O4'       -0.2250   -7.1880   -1.3380 O.3    28  G28        -0.3307
    541  C3'        1.2740   -8.0490    0.2070 C.3    28  G28         0.1860
    542  O3'        1.4750   -8.7860    1.4210 O.3    28  G28        -0.3112
    543  C2'        1.3550   -8.9400   -1.0290 C.3    28  G28         0.2309
    544  O2'        0.7860  -10.2210   -0.8570 O.3    28  G28        -0.2156
    545  C1'        0.5780   -8.1090   -2.0640 C.3    28  G28         0.2408
    546   N9        1.5000   -7.3670   -2.9340 N.ar   28  G28        -0.2693
    547   C8        1.5720   -6.0020   -3.1170 C.ar   28  G28         0.1817
    548   N7        2.5530   -5.6360   -3.9000 N.ar   28  G28        -0.2173
    549   C5        3.1590   -6.8260   -4.2720 C.ar   28  G28         0.1748
    550   C6        4.2920   -7.0590   -5.0950 C.ar   28  G28         0.3023
    551   O6        5.0180   -6.2280   -5.6650 O.2    28  G28        -0.2633
    552   N.1       4.5620   -8.4220   -5.2170 N.ar   28  G28        -0.1709
    553   C.2       3.8430   -9.4300   -4.6120 C.ar   28  G28         0.2606
    554   N.2       4.2660  -10.6810   -4.8420 N.pl3  28  G28        -0.0859
    555   N.3       2.7890   -9.2250   -3.8350 N.ar   28  G28        -0.1918
    556   C4        2.5070   -7.9090   -3.7070 C.ar   28  G28         0.1723
    557    P.3      2.9100   -8.7370    2.1630 P.3    29  U29         0.2141
    558  OP1        2.8330   -9.5480    3.4050 O.3    29  U29        -0.4373
    559  OP2        3.3310   -7.3090    2.2410 O.2    29  U29        -0.5172
    560  O5'        3.8850   -9.5150    1.1690 O.3    29  U29        -0.3114
    561  C5'        3.5730  -10.8280    0.6950 C.3    29  U29         0.1812
    562  C4'        4.7220  -11.3770   -0.1190 C.3    29  U29         0.1773
    563  O4'        4.8180  -10.7020   -1.4000 O.3    29  U29        -0.3307
    564  C3'        6.0830  -11.1510    0.4940 C.3    29  U29         0.1860
    565  O3'        6.3290  -12.1210    1.4920 O.3    29  U29        -0.3112
    566  C2'        7.0130  -11.2870   -0.7050 C.3    29  U29         0.2309
    567  O2'        7.2470  -12.6400   -1.0190 O.3    29  U29        -0.2156
    568  C1'        6.1810  -10.6500   -1.8220 C.3    29  U29         0.2420
    569   N.1       6.5420   -9.2640   -2.1810 N.ar   29  U29        -0.2534
    570   C.2       7.5100   -9.0730   -3.1610 C.ar   29  U29         0.3546
    571   O.2       8.0980   -9.9910   -3.7150 O.2    29  U29        -0.2443
    572   N.3       7.7640   -7.7590   -3.4720 N.ar   29  U29        -0.1530
    573   C4        7.1720   -6.6390   -2.9230 C.ar   29  U29         0.2846
    574   O4        7.4380   -5.5270   -3.3820 O.2    29  U29        -0.2650
    575   C5        6.2100   -6.9120   -1.9100 C.ar   29  U29         0.0814
    576   C6        5.9340   -8.1790   -1.5800 C.ar   29  U29         0.0870
    577    P.3      7.2150  -11.7280    2.7670 P.3    30  C30         0.2141
    578  OP1        7.1150  -12.8220    3.7670 O.3    30  C30        -0.4373
    579  OP2        6.8220  -10.3400    3.1460 O.2    30  C30        -0.5172
    580  O5'        8.6960  -11.7650    2.1970 O.3    30  C30        -0.3114
    581  C5'        9.2200  -12.9790    1.6840 C.3    30  C30         0.1812
    582  C4'       10.3950  -12.7110    0.7840 C.3    30  C30         0.1773
    583  O4'        9.9730  -11.9910   -0.3990 O.3    30  C30        -0.3307
    584  C3'       11.4650  -11.8170    1.3740 C.3    30  C30         0.1860
    585  O3'       12.2780  -12.5550    2.2630 O.3    30  C30        -0.3112
    586  C2'       12.2000  -11.3320    0.1310 C.3    30  C30         0.2309
    587  O2'       13.1470  -12.2400   -0.3910 O.3    30  C30        -0.2156
    588  C1'       11.0360  -11.1620   -0.8450 C.3    30  C30         0.2420
    589   N.1      10.5740   -9.7630   -0.8930 N.ar   30  C30        -0.2535
    590   C.2      11.1210   -8.9110   -1.8570 C.ar   30  C30         0.3532
    591   O.2      11.9250   -9.3760   -2.6900 O.2    30  C30        -0.2443
    592   N.3      10.7590   -7.6060   -1.8610 N.ar   30  C30        -0.1739
    593   C4        9.8860   -7.1510   -0.9610 C.ar   30  C30         0.1759
    594   N.4       9.5850   -5.8580   -0.9820 N.pl3  30  C30        -0.1070
    595   C5        9.2900   -8.0030    0.0040 C.ar   30  C30         0.0566
    596   C6        9.6540   -9.2900    0.0000 C.ar   30  C30         0.0850
    597    P.3     12.8430  -11.8540    3.5780 P.3    31  A31         0.2141
    598  OP1       13.1250  -12.9470    4.5410 O.3    31  A31        -0.4373
    599  OP2       11.9430  -10.7400    3.9690 O.2    31  A31        -0.5172
    600  O5'       14.2080  -11.2220    3.0750 O.3    31  A31        -0.3114
    601  C5'       14.9980  -11.8840    2.0950 C.3    31  A31         0.1812
    602  C4'       15.7070  -10.8690    1.2380 C.3    31  A31         0.1773
    603  O4'       14.7930  -10.3040    0.2580 O.3    31  A31        -0.3307
    604  C3'       16.1990   -9.6420    1.9860 C.3    31  A31         0.1860
    605  O3'       17.3660   -9.8820    2.7550 O.3    31  A31        -0.3112
    606  C2'       16.3910   -8.6410    0.8570 C.3    31  A31         0.2309
    607  O2'       17.6090   -8.7880    0.1580 O.3    31  A31        -0.2156
    608  C1'       15.1800   -8.9630   -0.0300 C.3    31  A31         0.2408
    609   N9       14.0800   -8.0630    0.3200 N.ar   31  A31        -0.2693
    610   C8       13.0250   -8.2780    1.1720 C.ar   31  A31         0.1816
    611   N7       12.2640   -7.2260    1.3440 N.ar   31  A31        -0.2193
    612   C5       12.8450   -6.2600    0.5340 C.ar   31  A31         0.1518
    613   C6       12.5220   -4.9190    0.2800 C.ar   31  A31         0.1919
    614   N6       11.4940   -4.2830    0.8470 N.pl3  31  A31        -0.1054
    615   N.1      13.3040   -4.2390   -0.5820 N.ar   31  A31        -0.2040
    616   C.2      14.3380   -4.8700   -1.1410 C.ar   31  A31         0.2016
    617   N.3      14.7450   -6.1220   -0.9790 N.ar   31  A31        -0.2048
    618   C4       13.9480   -6.7700   -0.1190 C.ar   31  A31         0.1692
    619    P.3     17.4610   -9.2910    4.2490 P.3    32  C32         0.2141
    620  OP1       18.6250   -9.9470    4.8950 O.2    32  C32        -0.5172
    621  OP2       16.1230   -9.3580    4.8980 O.3    32  C32        -0.4373
    622  O5'       17.8340   -7.7640    4.0110 O.3    32  C32        -0.3114
    623  C5'       18.9730   -7.4200    3.2360 C.3    32  C32         0.1812
    624  C4'       18.9020   -5.9790    2.8150 C.3    32  C32         0.1773
    625  O4'       17.7480   -5.7780    1.9530 O.3    32  C32        -0.3307
    626  C3'       18.6780   -4.9790    3.9320 C.3    32  C32         0.1860
    627  O3'       19.8740   -4.7280    4.6720 O.3    32  C32        -0.3112
    628  C2'       18.1610   -3.7730    3.1510 C.3    32  C32         0.2309
    629  O2'       19.1780   -3.0570    2.4690 O.3    32  C32        -0.2156
    630  C1'       17.2380   -4.4590    2.1390 C.3    32  C32         0.2420
    631   N.1      15.8310   -4.5220    2.6120 N.ar   32  C32        -0.2535
    632   C.2      14.9840   -3.4320    2.3410 C.ar   32  C32         0.3532
    633   O.2      15.4140   -2.4870    1.6550 O.2    32  C32        -0.2443
    634   N.3      13.7200   -3.4420    2.8290 N.ar   32  C32        -0.1739
    635   C4       13.2840   -4.4850    3.5440 C.ar   32  C32         0.1759
    636   N.4      12.0330   -4.4360    4.0230 N.pl3  32  C32        -0.1070
    637   C5       14.1080   -5.6190    3.8020 C.ar   32  C32         0.0566
    638   C6       15.3620   -5.5970    3.3220 C.ar   32  C32         0.0850
    639    P.3     19.7830   -4.3410    6.2380 P.3    33  G33         0.2141
    640  OP1       21.1710   -4.3400    6.7840 O.2    33  G33        -0.5172
    641  OP2       18.7340   -5.1840    6.8830 O.3    33  G33        -0.4373
    642  O5'       19.2540   -2.8370    6.2220 O.3    33  G33        -0.3114
    643  C5'       20.0230   -1.7920    5.6170 C.3    33  G33         0.1812
    644  C4'       19.2570   -0.4870    5.6420 C.3    33  G33         0.1773
    645  O4'       18.1810   -0.5180    4.6680 O.3    33  G33        -0.3307
    646  C3'       18.5490   -0.1620    6.9470 C.3    33  G33         0.1860
    647  O3'       19.4390    0.3530    7.9280 O.3    33  G33        -0.3112
    648  C2'       17.4960    0.8440    6.4980 C.3    33  G33         0.2309
    649  O2'       17.9930    2.1560    6.3230 O.3    33  G33        -0.2156
    650  C1'       17.0880    0.2570    5.1460 C.3    33  G33         0.2408
    651   N9       15.9130   -0.6130    5.2680 N.ar   33  G33        -0.2693
    652   C8       15.8690   -1.9940    5.2650 C.ar   33  G33         0.1817
    653   N7       14.6640   -2.4700    5.4350 N.ar   33  G33        -0.2173
    654   C5       13.8610   -1.3400    5.5510 C.ar   33  G33         0.1748
    655   C6       12.4590   -1.2180    5.7590 C.ar   33  G33         0.3023
    656   O6       11.6190   -2.1190    5.9180 O.2    33  G33        -0.2633
    657   N.1      12.0610    0.1230    5.7850 N.ar   33  G33        -0.1709
    658   C.2      12.9030    1.2070    5.6470 C.ar   33  G33         0.2606
    659   N.2      12.3410    2.4220    5.6820 N.pl3  33  G33        -0.0859
    660   N.3      14.2050    1.1040    5.4810 N.ar   33  G33        -0.1918
    661   C4       14.6140   -0.1870    5.4370 C.ar   33  G33         0.1723
    662    P.3     19.1590    0.0590    9.4850 P.3    34  C34         0.2141
    663  OP1       20.3990    0.4560   10.2000 O.3    34  C34        -0.4373
    664  OP2       18.6360   -1.3320    9.6430 O.2    34  C34        -0.5172
    665  O5'       17.9980    1.0950    9.8450 O.3    34  C34        -0.3114
    666  C5'       18.1200    2.4740    9.4960 C.3    34  C34         0.1812
    667  C4'       16.7960    3.1880    9.6530 C.3    34  C34         0.1773
    668  O4'       15.8560    2.7470    8.6400 O.3    34  C34        -0.3307
    669  C3'       16.0600    2.9700   10.9630 C.3    34  C34         0.1860
    670  O3'       16.5820    3.7960   11.9950 O.3    34  C34        -0.3112
    671  C2'       14.6300    3.3450   10.5900 C.3    34  C34         0.2309
    672  O2'       14.3780    4.7370   10.6000 O.3    34  C34        -0.2156
    673  C1'       14.5390    2.7960    9.1650 C.3    34  C34         0.2420
    674   N.1      13.9660    1.4430    9.1370 N.ar   34  C34        -0.2535
    675   C.2      12.5650    1.2920    9.2350 C.ar   34  C34         0.3532
    676   O.2      11.8500    2.3020    9.3590 O.2    34  C34        -0.2443
    677   N.3      12.0330    0.0480    9.1960 N.ar   34  C34        -0.1739
    678   C4       12.8350   -1.0200    9.0720 C.ar   34  C34         0.1759
    679   N.4      12.2650   -2.2300    9.0200 N.pl3  34  C34        -0.1070
    680   C5       14.2560   -0.8940    8.9870 C.ar   34  C34         0.0566
    681   C6       14.7720    0.3420    9.0210 C.ar   34  C34         0.0850
    682    P.3     16.5440    3.2850   13.5170 P.3    35  C35         0.2141
    683  OP1       17.3890    4.2090   14.3100 O.3    35  C35        -0.4373
    684  OP2       16.8330    1.8270   13.5290 O.2    35  C35        -0.5172
    685  O5'       15.0300    3.5060   13.9640 O.3    35  C35        -0.3114
    686  C5'       14.5010    4.8160   14.1090 C.3    35  C35         0.1812
    687  C4'       12.9980    4.7720   14.2640 C.3    35  C35         0.1773
    688  O4'       12.3650    4.2740   13.0490 O.3    35  C35        -0.3307
    689  C3'       12.4360    3.8380   15.3180 C.3    35  C35         0.1860
    690  O3'       12.5890    4.3100   16.6430 O.3    35  C35        -0.3112
    691  C2'       10.9770    3.7810   14.9070 C.3    35  C35         0.2309
    692  O2'       10.2560    4.9410   15.2890 O.3    35  C35        -0.2156
    693  C1'       11.1250    3.6550   13.3870 C.3    35  C35         0.2420
    694   N.1      11.2250    2.2300   12.9980 N.ar   35  C35        -0.2535
    695   C.2      10.0640    1.4150   12.9590 C.ar   35  C35         0.3532
    696   O.2       8.9420    1.9160   13.1530 O.2    35  C35        -0.2443
    697   N.3      10.2000    0.0950   12.7060 N.ar   35  C35        -0.1739
    698   C4       11.3980   -0.4200   12.4800 C.ar   35  C35         0.1759
    699   N.4      11.4740   -1.7240   12.2850 N.pl3  35  C35        -0.1070
    700   C5       12.5730    0.3800   12.4560 C.ar   35  C35         0.0566
    701   C6       12.4420    1.6860   12.7140 C.ar   35  C35         0.0850
    702    P.3     12.7240    3.2460   17.8420 P.3    36  G36         0.2141
    703  OP1       13.0260    4.0550   19.0550 O.3    36  G36        -0.4373
    704  OP2       13.6430    2.1430   17.4250 O.2    36  G36        -0.5172
    705  O5'       11.2580    2.6330   17.9790 O.3    36  G36        -0.3114
    706  C5'       10.1550    3.4590   18.3370 C.3    36  G36         0.1812
    707  C4'        8.8720    2.6630   18.3220 C.3    36  G36         0.1773
    708  O4'        8.6730    2.1040   16.9940 O.3    36  G36        -0.3307
    709  C3'        8.8110    1.4480   19.2340 C.3    36  G36         0.1860
    710  O3'        8.5010    1.7780   20.5910 O.3    36  G36        -0.3112
    711  C2'        7.7000    0.6410   18.5790 C.3    36  G36         0.2309
    712  O2'        6.4250    1.1610   18.8780 O.3    36  G36        -0.2156
    713  C1'        8.0150    0.8520   17.0980 C.3    36  G36         0.2408
    714   N9        8.8840   -0.1830   16.5480 N.ar   36  G36        -0.2693
    715   C8       10.2070   -0.0610   16.1950 C.ar   36  G36         0.1817
    716   N7       10.7290   -1.1780   15.7600 N.ar   36  G36        -0.2173
    717   C5        9.6860   -2.0970   15.8210 C.ar   36  G36         0.1748
    718   C6        9.6530   -3.4960   15.4910 C.ar   36  G36         0.3023
    719   O6       10.5710   -4.2180   15.0690 O.2    36  G36        -0.2633
    720   N.1       8.3910   -4.0430   15.7120 N.ar   36  G36        -0.1709
    721   C.2       7.3000   -3.3520   16.2010 C.ar   36  G36         0.2606
    722   N.2       6.1740   -4.0720   16.3690 N.pl3  36  G36        -0.0859
    723   N.3       7.3150   -2.0540   16.5090 N.ar   36  G36        -0.1918
    724   C4        8.5340   -1.4960   16.2970 C.ar   36  G36         0.1723
    725    P.3      8.9950    0.8010   21.7830 P.3    37  G37         0.2141
    726  OP1        8.6720    1.4500   23.0780 O.3    37  G37        -0.4373
    727  OP2       10.3930    0.3400   21.5270 O.2    37  G37        -0.5172
    728  O5'        8.0660   -0.4820   21.6320 O.3    37  G37        -0.3114
    729  C5'        6.6850   -0.4270   21.9660 C.3    37  G37         0.1812
    730  C4'        6.0750   -1.8090   21.9000 C.3    37  G37         0.1773
    731  O4'        6.1470   -2.2860   20.5280 O.3    37  G37        -0.3307
    732  C3'        6.7720   -2.9000   22.7000 C.3    37  G37         0.1860
    733  O3'        6.4140   -2.9240   24.0820 O.3    37  G37        -0.3112
    734  C2'        6.2970   -4.1560   21.9900 C.3    37  G37         0.2309
    735  O2'        5.0020   -4.5400   22.4110 O.3    37  G37        -0.2156
    736  C1'        6.2990   -3.6950   20.5250 C.3    37  G37         0.2408
    737   N9        7.5540   -3.9760   19.8370 N.ar   37  G37        -0.2693
    738   C8        8.5890   -3.0960   19.6540 C.ar   37  G37         0.1817
    739   N7        9.5920   -3.6140   19.0030 N.ar   37  G37        -0.2173
    740   C5        9.1960   -4.9170   18.7370 C.ar   37  G37         0.1748
    741   C6        9.8770   -5.9630   18.0540 C.ar   37  G37         0.3023
    742   O6       10.9950   -5.9310   17.5090 O.2    37  G37        -0.2633
    743   N.1       9.1220   -7.1320   18.0360 N.ar   37  G37        -0.1709
    744   C.2       7.8690   -7.2700   18.5900 C.ar   37  G37         0.2606
    745   N.2       7.2990   -8.4760   18.4810 N.pl3  37  G37        -0.0859
    746   N.3       7.2210   -6.2980   19.2080 N.ar   37  G37        -0.1918
    747   C4        7.9400   -5.1590   19.2490 C.ar   37  G37         0.1723
    748    P.3      7.3980   -3.6370   25.1310 P.3    38  C38         0.2141
    749  OP1        6.8700   -3.5240   26.5110 O.3    38  C38        -0.4373
    750  OP2        8.7660   -3.1400   24.8310 O.2    38  C38        -0.5172
    751  O5'        7.3120   -5.1760   24.7330 O.3    38  C38        -0.3114
    752  C5'        6.1350   -5.9340   25.0160 C.3    38  C38         0.1812
    753  C4'        6.2810   -7.3670   24.5380 C.3    38  C38         0.1773
    754  O4'        6.4320   -7.3790   23.0940 O.3    38  C38        -0.3307
    755  C3'        7.4980   -8.1330   25.0250 C.3    38  C38         0.1860
    756  O3'        7.3760   -8.6390   26.3470 O.3    38  C38        -0.3112
    757  C2'        7.6120   -9.2290   23.9780 C.3    38  C38         0.2309
    758  O2'        6.6750  -10.2740   24.1450 O.3    38  C38        -0.2156
    759  C1'        7.3080   -8.4320   22.7120 C.3    38  C38         0.2420
    760   N.1       8.5350   -7.8290   22.1340 N.ar   38  C38        -0.2535
    761   C.2       9.3070   -8.5800   21.2250 C.ar   38  C38         0.3532
    762   O.2       8.9380   -9.7320   20.9170 O.2    38  C38        -0.2443
    763   N.3      10.4390   -8.0310   20.7110 N.ar   38  C38        -0.1739
    764   C4       10.8150   -6.8020   21.0720 C.ar   38  C38         0.1759
    765   N.4      11.9540   -6.3180   20.5530 N.pl3  38  C38        -0.1070
    766   C5       10.0500   -6.0180   21.9810 C.ar   38  C38         0.0566
    767   C6        8.9290   -6.5620   22.4810 C.ar   38  C38         0.0850
    768    P.3      8.6780   -8.6820   27.2850 P.3    39  G39         0.2141
    769  OP1        8.2330   -8.8960   28.6780 O.3    39  G39        -0.4373
    770  OP2        9.5540   -7.5170   26.9620 O.2    39  G39        -0.5172
    771  O5'        9.4570   -9.9770   26.7940 O.3    39  G39        -0.3114
    772  C5'        8.7660  -11.1740   26.4750 C.3    39  G39         0.1812
    773  C4'        9.6750  -12.1090   25.7110 C.3    39  G39         0.1773
    774  O4'        9.9170  -11.6040   24.3740 O.3    39  G39        -0.3307
    775  C3'       11.0670  -12.2760   26.2810 C.3    39  G39         0.1860
    776  O3'       11.0730  -13.2060   27.3380 O.3    39  G39        -0.3112
    777  C2'       11.8370  -12.8060   25.0910 C.3    39  G39         0.2309
    778  O2'       11.6440  -14.2020   24.9280 O.3    39  G39        -0.2156
    779  C1'       11.2130  -11.9950   23.9500 C.3    39  G39         0.2408
    780   N9       11.9840  -10.8040   23.6160 N.ar   39  G39        -0.2693
    781   C8       11.7310   -9.5020   23.9690 C.ar   39  G39         0.1817
    782   N7       12.6300   -8.6680   23.5240 N.ar   39  G39        -0.2173
    783   C5       13.5240   -9.4700   22.8290 C.ar   39  G39         0.1748
    784   C6       14.7090   -9.1350   22.1060 C.ar   39  G39         0.3023
    785   O6       15.2160   -8.0080   21.9110 O.2    39  G39        -0.2633
    786   N.1      15.3060  -10.2740   21.5700 N.ar   39  G39        -0.1709
    787   C.2      14.8210  -11.5560   21.6890 C.ar   39  G39         0.2606
    788   N.2      15.5180  -12.5310   21.0970 N.pl3  39  G39        -0.0859
    789   N.3      13.7250  -11.8680   22.3380 N.ar   39  G39        -0.1918
    790   C4       13.1330  -10.7900   22.8800 C.ar   39  G39         0.1723
    791    P.3     11.6180  -12.7450   28.7660 P.3    40  A40         0.2141
    792  OP1       10.6230  -13.2410   29.7440 O.3    40  A40        -0.4373
    793  OP2       11.8990  -11.2760   28.6820 O.2    40  A40        -0.5172
    794  O5'       13.0220  -13.5010   28.9030 O.3    40  A40        -0.3114
    795  C5'       13.2180  -14.5430   29.8390 C.3    40  A40         0.1812
    796  C4'       14.3300  -14.1870   30.8010 C.3    40  A40         0.1773
    797  O4'       14.1490  -15.0040   31.9770 O.3    40  A40        -0.3307
    798  C3'       15.7860  -14.3860   30.3500 C.3    40  A40         0.1860
    799  O3'       16.3750  -13.1590   29.8710 O.3    40  A40        -0.3112
    800  C2'       16.4710  -14.8320   31.6420 C.3    40  A40         0.2309
    801  O2'       16.8060  -13.7630   32.4990 O.3    40  A40        -0.2156
    802  C1'       15.3630  -15.6260   32.3230 C.3    40  A40         0.2408
    803   N9       15.2510  -17.0270   31.9330 N.ar   40  A40        -0.2693
    804   C8       14.3560  -17.5700   31.0490 C.ar   40  A40         0.1816
    805   N7       14.4180  -18.8730   30.9700 N.ar   40  A40        -0.2193
    806   C5       15.4380  -19.2100   31.8430 C.ar   40  A40         0.1518
    807   C6       15.9960  -20.4500   32.2180 C.ar   40  A40         0.1919
    808   N6       15.5850  -21.6300   31.7520 N.pl3  40  A40        -0.1054
    809   N.1      17.0070  -20.4360   33.1010 N.ar   40  A40        -0.2040
    810   C.2      17.4300  -19.2530   33.5730 C.ar   40  A40         0.2016
    811   N.3      16.9890  -18.0250   33.2980 N.ar   40  A40        -0.2048
    812   C4       15.9780  -18.0780   32.4190 C.ar   40  A40         0.1692
    813    P.3     17.7260  -13.1810   28.9860 P.3    41  A41         0.2141
    814  OP1       18.1200  -11.7640   28.7560 O.3    41  A41        -0.4373
    815  OP2       17.5150  -14.0620   27.8260 O.2    41  A41        -0.5172
    816  O5'       18.8080  -13.8780   29.9210 O.3    41  A41        -0.3114
    817  C5'       19.4950  -13.1300   30.9270 C.3    41  A41         0.1812
    818  C4'       20.6060  -13.9540   31.5590 C.3    41  A41         0.1773
    819  O4'       20.0440  -15.0880   32.2750 O.3    41  A41        -0.3307
    820  C3'       21.6010  -14.5800   30.5980 C.3    41  A41         0.1860
    821  O3'       22.6200  -13.6440   30.2520 O.3    41  A41        -0.3112
    822  C2'       22.1750  -15.7190   31.4400 C.3    41  A41         0.2309
    823  O2'       23.1620  -15.2690   32.3500 O.3    41  A41        -0.2156
    824  C1'       20.9500  -16.1740   32.2380 C.3    41  A41         0.2408
    825   N9       20.2820  -17.3570   31.6910 N.ar   41  A41        -0.2693
    826   C8       19.1720  -17.4230   30.8860 C.ar   41  A41         0.1816
    827   N7       18.8000  -18.6480   30.5960 N.ar   41  A41        -0.2193
    828   C5       19.7300  -19.4430   31.2450 C.ar   41  A41         0.1518
    829   C6       19.8730  -20.8360   31.3430 C.ar   41  A41         0.1919
    830   N6       19.0440  -21.7010   30.7570 N.pl3  41  A41        -0.1054
    831   N.1      20.9050  -21.3170   32.0740 N.ar   41  A41        -0.2040
    832   C.2      21.7350  -20.4440   32.6550 C.ar   41  A41         0.2016
    833   N.3      21.7050  -19.1070   32.6390 N.ar   41  A41        -0.2048
    834   C4       20.6590  -18.6640   31.9130 C.ar   41  A41         0.1692
    835    P.3     22.4830  -12.7720   28.9150 P.3    42  G42         0.2141
    836  OP1       21.9730  -11.4390   29.3360 O.3    42  G42        -0.4373
    837  OP2       21.7670  -13.5540   27.8510 O.2    42  G42        -0.5172
    838  O5'       23.9880  -12.5340   28.4650 O.3    42  G42        -0.3114
    839  C5'       24.8850  -13.6240   28.2770 C.3    42  G42         0.1812
    840  C4'       25.6210  -13.4640   26.9670 C.3    42  G42         0.1773
    841  O4'       24.6730  -13.6000   25.8710 O.3    42  G42        -0.3307
    842  C3'       26.2780  -12.1060   26.7630 C.3    42  G42         0.1860
    843  O3'       27.5880  -12.1060   27.3220 O.3    42  G42        -0.3112
    844  C2'       26.2930  -11.9910   25.2480 C.3    42  G42         0.2309
    845  O2'       27.3450  -12.7350   24.6750 O.3    42  G42        -0.2156
    846  C1'       24.9370  -12.6190   24.8860 C.3    42  G42         0.2408
    847   N9       23.8240  -11.6680   24.9270 N.ar   42  G42        -0.2693
    848   C8       22.6190  -11.8750   25.5420 C.ar   42  G42         0.1817
    849   N7       21.8400  -10.8260   25.5130 N.ar   42  G42        -0.2173
    850   C5       22.5660   -9.8690   24.8160 C.ar   42  G42         0.1748
    851   C6       22.2380   -8.5250   24.4920 C.ar   42  G42         0.3023
    852   O6       21.2390   -7.8790   24.8040 O.2    42  G42        -0.2633
    853   N.1      23.2280   -7.9240   23.7430 N.ar   42  G42        -0.1709
    854   C.2      24.4030   -8.5170   23.3680 C.ar   42  G42         0.2606
    855   N.2      25.2270   -7.7510   22.6210 N.pl3  42  G42        -0.0859
    856   N.3      24.7460   -9.7600   23.6930 N.ar   42  G42        -0.1918
    857   C4       23.7800  -10.3750   24.4130 C.ar   42  G42         0.1723
    858    P.3     28.0270  -10.9450   28.3480 P.3    43  U43         0.2141
    859  OP1       29.2560  -11.4110   29.0230 O.2    43  U43        -0.5172
    860  OP2       26.8660  -10.5560   29.1730 O.3    43  U43        -0.4373
    861  O5'       28.3740   -9.7290   27.3760 O.3    43  U43        -0.3114
    862  C5'       29.2820   -9.9040   26.2860 C.3    43  U43         0.1812
    863  C4'       29.4990   -8.5970   25.5370 C.3    43  U43         0.1773
    864  O4'       28.3700   -8.2930   24.6700 O.3    43  U43        -0.3307
    865  C3'       29.6900   -7.3370   26.3650 C.3    43  U43         0.1860
    866  O3'       31.0050   -7.2050   26.9020 O.3    43  U43        -0.3112
    867  C2'       29.3640   -6.2500   25.3500 C.3    43  U43         0.2309
    868  O2'       30.4290   -5.9790   24.4640 O.3    43  U43        -0.2156
    869  C1'       28.2000   -6.8860   24.5890 C.3    43  U43         0.2420
    870   N.1      26.8840   -6.5480   25.1640 N.ar   43  U43        -0.2534
    871   C.2      26.3760   -5.2620   24.9630 C.ar   43  U43         0.3546
    872   O.2      26.9820   -4.3850   24.3640 O.2    43  U43        -0.2443
    873   N.3      25.1320   -5.0420   25.5050 N.ar   43  U43        -0.1530
    874   C4       24.3670   -5.9390   26.2300 C.ar   43  U43         0.2846
    875   O4       23.2850   -5.5770   26.6950 O.2    43  U43        -0.2650
    876   C5       24.9620   -7.2270   26.4090 C.ar   43  U43         0.0814
    877   C6       26.1620   -7.4830   25.8860 C.ar   43  U43         0.0870
    878    P.3     31.2040   -6.4930   28.3350 P.3    44  C44         0.2141
    879  OP1       32.5780   -6.7780   28.8470 O.2    44  C44        -0.5172
    880  OP2       30.0240   -6.8160   29.1790 O.3    44  C44        -0.4373
    881  O5'       31.0920   -4.9420   28.0070 O.3    44  C44        -0.3114
    882  C5'       31.9180   -4.3410   27.0230 C.3    44  C44         0.1812
    883  C4'       31.4360   -2.9460   26.7360 C.3    44  C44         0.1773
    884  O4'       30.2060   -3.0170   25.9630 O.3    44  C44        -0.3307
    885  C3'       31.0480   -2.1370   27.9670 C.3    44  C44         0.1860
    886  O3'       32.1370   -1.5290   28.6510 O.3    44  C44        -0.3112
    887  C2'       30.0850   -1.1210   27.3780 C.3    44  C44         0.2309
    888  O2'       30.7260   -0.0800   26.6660 O.3    44  C44        -0.2156
    889  C1'       29.3070   -2.0070   26.4100 C.3    44  C44         0.2420
    890   N.1      28.1620   -2.6330   27.1030 N.ar   44  C44        -0.2535
    891   C.2      26.9970   -1.8950   27.2290 C.ar   44  C44         0.3532
    892   O.2      26.9780   -0.7450   26.7880 O.2    44  C44        -0.2443
    893   N.3      25.9170   -2.4450   27.8370 N.ar   44  C44        -0.1739
    894   C4       25.9830   -3.6830   28.3250 C.ar   44  C44         0.1759
    895   N.4      24.8830   -4.1810   28.9200 N.pl3  44  C44        -0.1070
    896   C5       27.1720   -4.4630   28.2270 C.ar   44  C44         0.0566
    897   C6       28.2280   -3.9030   27.6130 C.ar   44  C44         0.0850
    898    P.3     31.9500   -1.0960   30.1880 P.3    45  G45         0.2141
    899  OP1       33.2670   -0.6450   30.6750 O.2    45  G45        -0.5172
    900  OP2       31.2290   -2.1650   30.9250 O.3    45  G45        -0.4373
    901  O5'       31.0190    0.1950   30.1120 O.3    45  G45        -0.3114
    902  C5'       31.4960    1.4010   29.5090 C.3    45  G45         0.1812
    903  C4'       30.4700    2.5100   29.6410 C.3    45  G45         0.1773
    904  O4'       29.2670    2.1510   28.9080 O.3    45  G45        -0.3307
    905  C3'       29.9700    2.7980   31.0440 C.3    45  G45         0.1860
    906  O3'       30.8700    3.6390   31.7570 O.3    45  G45        -0.3112
    907  C2'       28.6220    3.4500   30.7660 C.3    45  G45         0.2309
    908  O2'       28.7300    4.7670   30.2920 O.3    45  G45        -0.2156
    909  C1'       28.1170    2.5890   29.6140 C.3    45  G45         0.2408
    910   N9       27.3990    1.4140   30.1120 N.ar   45  G45        -0.2693
    911   C8       27.8670    0.1220   30.1880 C.ar   45  G45         0.1817
    912   N7       26.9900   -0.7130   30.6830 N.ar   45  G45        -0.2173
    913   C5       25.8730    0.0670   30.9420 C.ar   45  G45         0.1748
    914   C6       24.6060   -0.2890   31.4700 C.ar   45  G45         0.3023
    915   O6       24.1930   -1.4050   31.8000 O.2    45  G45        -0.2633
    916   N.1      23.7780    0.8190   31.6010 N.ar   45  G45        -0.1709
    917   C.2      24.1220    2.1040   31.2700 C.ar   45  G45         0.2606
    918   N.2      23.2140    3.0480   31.5380 N.pl3  45  G45        -0.0859
    919   N.3      25.2820    2.4450   30.7340 N.ar   45  G45        -0.1918
    920   C4       26.1080    1.3850   30.6070 C.ar   45  G45         0.1723
    921    P.3     30.9450    3.5380   33.3610 P.3    46  C46         0.2141
    922  OP1       32.0230    4.4550   33.8100 O.3    46  C46        -0.4373
    923  OP2       30.9610    2.1090   33.7950 O.2    46  C46        -0.5172
    924  O5'       29.5560    4.1530   33.8230 O.3    46  C46        -0.3114
    925  C5'       29.2340    5.5090   33.5400 C.3    46  C46         0.1813
    926  C4'       27.8510    5.8210   34.0360 C.3    46  C46         0.1801
    927  O4'       26.8950    5.0120   33.3100 O.3    46  C46        -0.3306
    928  C3'       27.6000    5.4420   35.4810 C.3    46  C46         0.2161
    929  O3'       28.2450    6.2920   36.4340 O.3    46  C46        -0.2175
    930  C2'       26.0860    5.3440   35.5080 C.3    46  C46         0.2338
    931  O2'       25.4660    6.6100   35.4860 O.3    46  C46        -0.2155
    932  C1'       25.8290    4.6530   34.1710 C.3    46  C46         0.2421
    933   N.1      25.8040    3.1810   34.2870 N.ar   46  C46        -0.2535
    934   C.2      24.5920    2.5450   34.5860 C.ar   46  C46         0.3532
    935   O.2      23.5710    3.2240   34.7110 O.2    46  C46        -0.2443
    936   N.3      24.5600    1.2040   34.7120 N.ar   46  C46        -0.1739
    937   C4       25.6630    0.4910   34.5140 C.ar   46  C46         0.1759
    938   N.4      25.5620   -0.8310   34.6080 N.pl3  46  C46        -0.1070
    939   C5       26.9110    1.1010   34.2010 C.ar   46  C46         0.0566
    940   C6       26.9390    2.4380   34.1070 C.ar   46  C46         0.0850
    941  OP.3      24.5100  -31.1000  -14.7780 O.3    47  U47         0.0000
    942  O5'       25.4960  -29.1580  -16.0420 O.3    47  U47        -0.2176
    943  C5'       26.9010  -29.4210  -15.8590 C.3    47  U47         0.2141
    944  C4'       27.7560  -28.1710  -15.8250 C.3    47  U47         0.1802
    945  O4'       27.9040  -27.6390  -17.1710 O.3    47  U47        -0.3306
    946  C3'       27.1740  -27.0160  -15.0220 C.3    47  U47         0.1861
    947  O3'       27.4470  -27.1460  -13.6300 O.3    47  U47        -0.3112
    948  C2'       27.8510  -25.8050  -15.6540 C.3    47  U47         0.2309
    949  O2'       29.1630  -25.5740  -15.1720 O.3    47  U47        -0.2156
    950  C1'       27.8700  -26.2160  -17.1310 C.3    47  U47         0.2420
    951   N.1      26.6760  -25.7760  -17.8820 N.ar   47  U47        -0.2534
    952   C.2      26.4600  -24.4070  -18.0570 C.ar   47  U47         0.3546
    953   O.2      27.1830  -23.5460  -17.5690 O.2    47  U47        -0.2443
    954   N.3      25.3460  -24.0920  -18.8110 N.ar   47  U47        -0.1530
    955   C4       24.4300  -24.9780  -19.3740 C.ar   47  U47         0.2846
    956   O4       23.4660  -24.5410  -20.0050 O.2    47  U47        -0.2650
    957   C5       24.7050  -26.3600  -19.1270 C.ar   47  U47         0.0814
    958   C6       25.7860  -26.7060  -18.4130 C.ar   47  U47         0.0870
    959    P.3     26.2630  -26.9190  -12.5620 P.3    48  U48         0.2141
    960  OP1       26.7610  -27.3730  -11.2390 O.3    48  U48        -0.4373
    961  OP2       25.0160  -27.5140  -13.1160 O.2    48  U48        -0.5172
    962  O5'       26.0930  -25.3370  -12.5110 O.3    48  U48        -0.3114
    963  C5'       27.1050  -24.5300  -11.9490 C.3    48  U48         0.1812
    964  C4'       26.9920  -23.1260  -12.4650 C.3    48  U48         0.1773
    965  O4'       26.8960  -23.1680  -13.9110 O.3    48  U48        -0.3307
    966  C3'       25.7480  -22.3490  -12.0820 C.3    48  U48         0.1860
    967  O3'       25.8210  -21.8420  -10.7560 O.3    48  U48        -0.3112
    968  C2'       25.7590  -21.2380  -13.1260 C.3    48  U48         0.2309
    969  O2'       26.6870  -20.1930  -12.8630 O.3    48  U48        -0.2156
    970  C1'       26.1790  -22.0280  -14.3670 C.3    48  U48         0.2420
    971   N.1      25.0390  -22.4780  -15.1900 N.ar   48  U48        -0.2534
    972   C.2      24.3070  -21.5050  -15.8540 C.ar   48  U48         0.3546
    973   O.2      24.5470  -20.3130  -15.7520 O.2    48  U48        -0.2443
    974   N.3      23.2770  -21.9740  -16.6370 N.ar   48  U48        -0.1530
    975   C4       22.8910  -23.2880  -16.8190 C.ar   48  U48         0.2846
    976   O4       21.9420  -23.5500  -17.5870 O.2    48  U48        -0.2650
    977   C5       23.6850  -24.2430  -16.0800 C.ar   48  U48         0.0814
    978   C6       24.7040  -23.8150  -15.3130 C.ar   48  U48         0.0870
    979    P.3     24.4850  -21.7490   -9.8720 P.3    49  G49         0.2141
    980  OP1       24.8840  -21.5030   -8.4560 O.3    49  G49        -0.4373
    981  OP2       23.6390  -22.9340  -10.2210 O.2    49  G49        -0.5172
    982  O5'       23.7860  -20.4240  -10.3980 O.3    49  G49        -0.3114
    983  C5'       24.4390  -19.1730  -10.2630 C.3    49  G49         0.1812
    984  C4'       23.7060  -18.1150  -11.0440 C.3    49  G49         0.1773
    985  O4'       23.6890  -18.4760  -12.4490 O.3    49  G49        -0.3307
    986  C3'       22.2350  -17.9740  -10.7290 C.3    49  G49         0.1860
    987  O3'       22.0390  -17.2840   -9.5100 O.3    49  G49        -0.3112
    988  C2'       21.7330  -17.2480  -11.9690 C.3    49  G49         0.2309
    989  O2'       22.1250  -15.8880  -12.0340 O.3    49  G49        -0.2156
    990  C1'       22.4910  -18.0070  -13.0530 C.3    49  G49         0.2408
    991   N9       21.7890  -19.1680  -13.5930 N.ar   49  G49        -0.2693
    992   C8       22.0600  -20.4950  -13.3300 C.ar   49  G49         0.1817
    993   N7       21.3020  -21.3200  -14.0000 N.ar   49  G49        -0.2173
    994   C5       20.4650  -20.4900  -14.7450 C.ar   49  G49         0.1748
    995   C6       19.4180  -20.8170  -15.6810 C.ar   49  G49         0.3023
    996   O6       19.0250  -21.9510  -16.0500 O.2    49  G49        -0.2633
    997   N.1      18.8200  -19.6620  -16.1960 N.ar   49  G49        -0.1709
    998   C.2      19.1740  -18.3640  -15.8570 C.ar   49  G49         0.2606
    999   N.2      18.4590  -17.3850  -16.4360 N.pl3  49  G49        -0.0859
   1000   N.3      20.1510  -18.0510  -15.0060 N.ar   49  G49        -0.1918
   1001   C4       20.7460  -19.1550  -14.4920 C.ar   49  G49         0.1723
   1002    P.3     20.9440  -17.8280   -8.4650 P.3    50  C50         0.2141
   1003  OP1       21.2540  -17.1970   -7.1600 O.3    50  C50        -0.4373
   1004  OP2       20.8560  -19.3140   -8.5640 O.2    50  C50        -0.5172
   1005  O5'       19.5900  -17.1940   -9.0060 O.3    50  C50        -0.3114
   1006  C5'       19.4530  -15.7790   -9.1070 C.3    50  C50         0.1812
   1007  C4'       18.3450  -15.4350  -10.0560 C.3    50  C50         0.1773
   1008  O4'       18.6960  -15.9390  -11.3740 O.3    50  C50        -0.3307
   1009  C3'       17.0250  -16.1240   -9.7670 C.3    50  C50         0.1860
   1010  O3'       16.2920  -15.5390   -8.6990 O.3    50  C50        -0.3112
   1011  C2'       16.3400  -16.0730  -11.1310 C.3    50  C50         0.2309
   1012  O2'       15.7490  -14.8320  -11.4890 O.3    50  C50        -0.2156
   1013  C1'       17.5230  -16.3960  -12.0480 C.3    50  C50         0.2420
   1014   N.1      17.6340  -17.8560  -12.2960 N.ar   50  C50        -0.2535
   1015   C.2      16.8890  -18.4250  -13.3420 C.ar   50  C50         0.3532
   1016   O.2      16.2370  -17.6820  -14.0880 O.2    50  C50        -0.2443
   1017   N.3      16.9020  -19.7710  -13.5190 N.ar   50  C50        -0.1739
   1018   C4       17.6290  -20.5410  -12.7080 C.ar   50  C50         0.1759
   1019   N.4      17.5740  -21.8720  -12.8820 N.pl3  50  C50        -0.1070
   1020   C5       18.4380  -19.9850  -11.6700 C.ar   50  C50         0.0566
   1021   C6       18.4130  -18.6510  -11.5030 C.ar   50  C50         0.0850
   1022    P.3     15.3780  -16.4820   -7.7660 P.3    51  G51         0.2141
   1023  OP1       14.8830  -15.6270   -6.6530 O.3    51  G51        -0.4373
   1024  OP2       16.0870  -17.7570   -7.4600 O.2    51  G51        -0.5172
   1025  O5'       14.1440  -16.8630   -8.6970 O.3    51  G51        -0.3114
   1026  C5'       13.2520  -15.8610   -9.1620 C.3    51  G51         0.1812
   1027  C4'       12.3180  -16.4300  -10.2000 C.3    51  G51         0.1773
   1028  O4'       13.0970  -16.9500  -11.3110 O.3    51  G51        -0.3307
   1029  C3'       11.4590  -17.6200   -9.7980 C.3    51  G51         0.1860
   1030  O3'       10.3300  -17.2270   -9.0190 O.3    51  G51        -0.3112
   1031  C2'       11.0600  -18.1450  -11.1730 C.3    51  G51         0.2309
   1032  O2'       10.0800  -17.3670  -11.8320 O.3    51  G51        -0.2156
   1033  C1'       12.3810  -18.0090  -11.9300 C.3    51  G51         0.2408
   1034   N9       13.1540  -19.2480  -11.8670 N.ar   51  G51        -0.2693
   1035   C8       14.2420  -19.5520  -11.0780 C.ar   51  G51         0.1817
   1036   N7       14.6410  -20.7900  -11.2120 N.ar   51  G51        -0.2173
   1037   C5       13.7790  -21.3250  -12.1630 C.ar   51  G51         0.1748
   1038   C6       13.7090  -22.6440  -12.7310 C.ar   51  G51         0.3023
   1039   O6       14.4360  -23.6400  -12.5110 O.2    51  G51        -0.2633
   1040   N.1      12.6650  -22.7410  -13.6450 N.ar   51  G51        -0.1709
   1041   C.2      11.8130  -21.7150  -13.9890 C.ar   51  G51         0.2606
   1042   N.2      10.8520  -22.0040  -14.8890 N.pl3  51  G51        -0.0859
   1043   N.3      11.8860  -20.4960  -13.4900 N.ar   51  G51        -0.1918
   1044   C4       12.8720  -20.3770  -12.5860 C.ar   51  G51         0.1723
   1045    P.3      9.7070  -18.2280   -7.9050 P.3    52  U52         0.2141
   1046  OP1        8.7130  -17.3960   -7.1740 O.2    52  U52        -0.5172
   1047  OP2       10.7610  -18.9640   -7.1330 O.3    52  U52        -0.4373
   1048  O5'        8.9020  -19.3190   -8.7340 O.3    52  U52        -0.3114
   1049  C5'        7.9470  -18.9530   -9.7100 C.3    52  U52         0.1812
   1050  C4'        7.6010  -20.1580  -10.5330 C.3    52  U52         0.1773
   1051  O4'        8.7900  -20.6070  -11.2370 O.3    52  U52        -0.3307
   1052  C3'        7.2010  -21.3840   -9.7300 C.3    52  U52         0.1860
   1053  O3'        5.8260  -21.3240   -9.3420 O.3    52  U52        -0.3112
   1054  C2'        7.4550  -22.4950  -10.7370 C.3    52  U52         0.2309
   1055  O2'        6.4430  -22.5160  -11.7200 O.3    52  U52        -0.2156
   1056  C1'        8.7490  -22.0180  -11.3960 C.3    52  U52         0.2420
   1057   N.1      10.0080  -22.6190  -10.9050 N.ar   52  U52        -0.2534
   1058   C.2      10.3450  -23.9210  -11.3170 C.ar   52  U52         0.3546
   1059   O.2       9.6310  -24.6130  -12.0270 O.2    52  U52        -0.2443
   1060   N.3      11.5540  -24.3820  -10.8500 N.ar   52  U52        -0.1530
   1061   C4       12.4490  -23.7130  -10.0190 C.ar   52  U52         0.2846
   1062   O4       13.5220  -24.2520   -9.6980 O.2    52  U52        -0.2650
   1063   C5       12.0240  -22.4040   -9.6280 C.ar   52  U52         0.0814
   1064   C6       10.8510  -21.9160  -10.0720 C.ar   52  U52         0.0870
   1065    P.3      5.3570  -21.9330   -7.9180 P.3    53  C53         0.2141
   1066  OP1        3.9780  -21.4320   -7.6920 O.2    53  C53        -0.5172
   1067  OP2        6.4060  -21.7370   -6.8630 O.3    53  C53        -0.4373
   1068  O5'        5.2450  -23.4930   -8.1850 O.3    53  C53        -0.3114
   1069  C5'        4.3270  -24.0070   -9.1310 C.3    53  C53         0.1812
   1070  C4'        4.6560  -25.4450   -9.4200 C.3    53  C53         0.1773
   1071  O4'        5.9410  -25.5140  -10.0960 O.3    53  C53        -0.3307
   1072  C3'        4.8760  -26.3040   -8.1900 C.3    53  C53         0.1860
   1073  O3'        3.6560  -26.7180   -7.5890 O.3    53  C53        -0.3112
   1074  C2'        5.6850  -27.4600   -8.7650 C.3    53  C53         0.2309
   1075  O2'        4.9070  -28.4210   -9.4460 O.3    53  C53        -0.2156
   1076  C1'        6.5950  -26.7240   -9.7490 C.3    53  C53         0.2420
   1077   N.1       7.9270  -26.4150   -9.1860 N.ar   53  C53        -0.2535
   1078   C.2       8.8820  -27.4440   -9.1320 C.ar   53  C53         0.3532
   1079   O.2       8.5790  -28.5620   -9.5880 O.2    53  C53        -0.2443
   1080   N.3      10.1060  -27.1950   -8.5830 N.ar   53  C53        -0.1739
   1081   C4       10.3870  -25.9800   -8.1040 C.ar   53  C53         0.1759
   1082   N.4      11.5910  -25.7840   -7.5570 N.pl3  53  C53        -0.1070
   1083   C5        9.4420  -24.9090   -8.1620 C.ar   53  C53         0.0566
   1084   C6        8.2350  -25.1680   -8.7090 C.ar   53  C53         0.0850
   1085    P.3      3.6390  -27.1520   -6.0390 P.3    54  A54         0.2141
   1086  OP1        2.2170  -27.3640   -5.6800 O.2    54  A54        -0.5172
   1087  OP2        4.4620  -26.2140   -5.2390 O.3    54  A54        -0.4373
   1088  O5'        4.3810  -28.5580   -6.0230 O.3    54  A54        -0.3114
   1089  C5'        3.8580  -29.6670   -6.7400 C.3    54  A54         0.1812
   1090  C4'        4.8040  -30.8360   -6.6390 C.3    54  A54         0.1773
   1091  O4'        6.0200  -30.5430   -7.3740 O.3    54  A54        -0.3307
   1092  C3'        5.2900  -31.1710   -5.2370 C.3    54  A54         0.1860
   1093  O3'        4.3450  -31.9910   -4.5540 O.3    54  A54        -0.3112
   1094  C2'        6.5700  -31.9330   -5.5360 C.3    54  A54         0.2309
   1095  O2'        6.2940  -33.2540   -5.9540 O.3    54  A54        -0.2156
   1096  C1'        7.1250  -31.1390   -6.7190 C.3    54  A54         0.2408
   1097   N9        8.0510  -30.0740   -6.3380 N.ar   54  A54        -0.2693
   1098   C8        7.7650  -28.7370   -6.2190 C.ar   54  A54         0.1816
   1099   N7        8.8030  -27.9960   -5.9110 N.ar   54  A54        -0.2193
   1100   C5        9.8410  -28.9080   -5.8090 C.ar   54  A54         0.1518
   1101   C6       11.2030  -28.7500   -5.5200 C.ar   54  A54         0.1919
   1102   N6       11.7690  -27.5610   -5.2750 N.pl3  54  A54        -0.1054
   1103   N.1      11.9730  -29.8600   -5.4920 N.ar   54  A54        -0.2040
   1104   C.2      11.3980  -31.0390   -5.7350 C.ar   54  A54         0.2016
   1105   N.3      10.1270  -31.3180   -6.0210 N.ar   54  A54        -0.2048
   1106   C4        9.3910  -30.1940   -6.0500 C.ar   54  A54         0.1692
   1107    P.3      4.0920  -31.7890   -2.9720 P.3    55  C55         0.2141
   1108  OP1        2.9510  -32.6780   -2.6420 O.2    55  C55        -0.5172
   1109  OP2        4.0100  -30.3420   -2.6360 O.3    55  C55        -0.4373
   1110  O5'        5.3980  -32.3980   -2.2930 O.3    55  C55        -0.3114
   1111  C5'        5.6850  -33.7860   -2.3930 C.3    55  C55         0.1812
   1112  C4'        7.1160  -34.0520   -2.0080 C.3    55  C55         0.1773
   1113  O4'        7.9910  -33.3450   -2.9280 O.3    55  C55        -0.3307
   1114  C3'        7.5430  -33.5550   -0.6340 C.3    55  C55         0.1860
   1115  O3'        7.1830  -34.4740    0.3980 O.3    55  C55        -0.3112
   1116  C2'        9.0530  -33.4470   -0.8060 C.3    55  C55         0.2309
   1117  O2'        9.7010  -34.6980   -0.7040 O.3    55  C55        -0.2156
   1118  C1'        9.1560  -32.9150   -2.2410 C.3    55  C55         0.2420
   1119   N.1       9.2530  -31.4360   -2.3120 N.ar   55  C55        -0.2535
   1120   C.2      10.5220  -30.8350   -2.1950 C.ar   55  C55         0.3532
   1121   O.2      11.5250  -31.5610   -2.0450 O.2    55  C55        -0.2443
   1122   N.3      10.6210  -29.4820   -2.2500 N.ar   55  C55        -0.1739
   1123   C4        9.5250  -28.7390   -2.4170 C.ar   55  C55         0.1759
   1124   N.4       9.6700  -27.4140   -2.4790 N.pl3  55  C55        -0.1070
   1125   C5        8.2300  -29.3200   -2.5330 C.ar   55  C55         0.0566
   1126   C6        8.1400  -30.6570   -2.4780 C.ar   55  C55         0.0850
   1127    P.3      7.2320  -34.0090    1.9410 P.3    56  G56         0.2141
   1128  OP1        6.8540  -35.1960    2.7650 O.3    56  G56        -0.4373
   1129  OP2        6.4840  -32.7300    2.1000 O.2    56  G56        -0.5172
   1130  O5'        8.7750  -33.7350    2.2200 O.3    56  G56        -0.3114
   1131  C5'        9.6600  -34.8070    2.5400 C.3    56  G56         0.1812
   1132  C4'       10.9500  -34.2640    3.0980 C.3    56  G56         0.1773
   1133  O4'       11.6350  -33.5060    2.0620 O.3    56  G56        -0.3307
   1134  C3'       10.7610  -33.2570    4.2170 C.3    56  G56         0.1860
   1135  O3'       10.6030  -33.8550    5.4810 O.3    56  G56        -0.3112
   1136  C2'       12.0350  -32.4440    4.1360 C.3    56  G56         0.2309
   1137  O2'       13.1290  -33.1300    4.7160 O.3    56  G56        -0.2156
   1138  C1'       12.1830  -32.3130    2.6180 C.3    56  G56         0.2408
   1139   N9       11.4410  -31.1650    2.0880 N.ar   56  G56        -0.2693
   1140   C8       10.1660  -31.1640    1.5740 C.ar   56  G56         0.1817
   1141   N7        9.7630  -29.9800    1.2000 N.ar   56  G56        -0.2173
   1142   C5       10.8340  -29.1500    1.4790 C.ar   56  G56         0.1748
   1143   C6       10.9790  -27.7590    1.2820 C.ar   56  G56         0.3023
   1144   O6       10.1610  -26.9610    0.8090 O.2    56  G56        -0.2633
   1145   N.1      12.2320  -27.3140    1.6910 N.ar   56  G56        -0.1709
   1146   C.2      13.2250  -28.1180    2.2170 C.ar   56  G56         0.2606
   1147   N.2      14.3830  -27.5150    2.5120 N.pl3  56  G56        -0.0859
   1148   N.3      13.0920  -29.4190    2.4220 N.ar   56  G56        -0.1918
   1149   C4       11.8810  -29.8650    2.0260 C.ar   56  G56         0.1723
   1150    P.3      9.7610  -33.0820    6.6010 P.3    57  C57         0.2141
   1151  OP1        9.4510  -34.0790    7.6480 O.3    57  C57        -0.4373
   1152  OP2        8.6490  -32.3480    5.9310 O.2    57  C57        -0.5172
   1153  O5'       10.7930  -32.0140    7.1760 O.3    57  C57        -0.3114
   1154  C5'       12.0460  -32.4210    7.7150 C.3    57  C57         0.1812
   1155  C4'       12.9360  -31.2220    7.9070 C.3    57  C57         0.1773
   1156  O4'       13.1920  -30.6200    6.6100 O.3    57  C57        -0.3307
   1157  C3'       12.3000  -30.0980    8.7000 C.3    57  C57         0.1860
   1158  O3'       12.3880  -30.2580   10.1030 O.3    57  C57        -0.3112
   1159  C2'       13.0660  -28.8790    8.2220 C.3    57  C57         0.2309
   1160  O2'       14.3060  -28.6980    8.8880 O.3    57  C57        -0.2156
   1161  C1'       13.2220  -29.2020    6.7330 C.3    57  C57         0.2420
   1162   N.1      12.1350  -28.6280    5.9050 N.ar   57  C57        -0.2535
   1163   C.2      12.1590  -27.2490    5.6130 C.ar   57  C57         0.3532
   1164   O.2      13.0950  -26.5620    6.0390 O.2    57  C57        -0.2443
   1165   N.3      11.1600  -26.7060    4.8790 N.ar   57  C57        -0.1739
   1166   C4       10.1630  -27.4740    4.4490 C.ar   57  C57         0.1759
   1167   N.4       9.1780  -26.8910    3.7680 N.pl3  57  C57        -0.1070
   1168   C5       10.1210  -28.8780    4.7090 C.ar   57  C57         0.0566
   1169   C6       11.1160  -29.4080    5.4350 C.ar   57  C57         0.0850
   1170    P.3     11.1900  -29.7120   11.0200 P.3    58  C58         0.2141
   1171  OP1       11.3710  -30.2100   12.4160 O.3    58  C58        -0.4373
   1172  OP2        9.9400  -30.0310   10.2590 O.2    58  C58        -0.5172
   1173  O5'       11.3970  -28.1320   11.0570 O.3    58  C58        -0.3114
   1174  C5'       12.5360  -27.5780   11.6900 C.3    58  C58         0.1812
   1175  C4'       12.7340  -26.1490   11.2610 C.3    58  C58         0.1773
   1176  O4'       12.8160  -26.0880    9.8090 O.3    58  C58        -0.3307
   1177  C3'       11.6080  -25.1920   11.5990 C.3    58  C58         0.1860
   1178  O3'       11.6870  -24.7340   12.9380 O.3    58  C58        -0.3112
   1179  C2'       11.8450  -24.0760   10.5950 C.3    58  C58         0.2309
   1180  O2'       12.9150  -23.2170   10.9500 O.3    58  C58        -0.2156
   1181  C1'       12.2020  -24.8910    9.3490 C.3    58  C58         0.2420
   1182   N.1      10.9950  -25.2340    8.5820 N.ar   58  C58        -0.2535
   1183   C.2      10.3640  -24.2220    7.8510 C.ar   58  C58         0.3532
   1184   O.2      10.8810  -23.0900    7.8280 O.2    58  C58        -0.2443
   1185   N.3       9.2140  -24.5040    7.1900 N.ar   58  C58        -0.1739
   1186   C4        8.7070  -25.7410    7.2300 C.ar   58  C58         0.1759
   1187   N.4       7.5660  -25.9740    6.5780 N.pl3  58  C58        -0.1070
   1188   C5        9.3470  -26.7960    7.9430 C.ar   58  C58         0.0566
   1189   C6       10.4770  -26.5020    8.5960 C.ar   58  C58         0.0850
   1190    P.3     10.3370  -24.4100   13.7360 P.3    59  G59         0.2141
   1191  OP1       10.6540  -24.2940   15.1860 O.3    59  G59        -0.4373
   1192  OP2        9.3350  -25.4120   13.2850 O.2    59  G59        -0.5172
   1193  O5'        9.9570  -22.9470   13.2280 O.3    59  G59        -0.3114
   1194  C5'       10.7760  -21.8390   13.5940 C.3    59  G59         0.1812
   1195  C4'       10.3280  -20.5700   12.9060 C.3    59  G59         0.1773
   1196  O4'       10.4450  -20.7250   11.4680 O.3    59  G59        -0.3307
   1197  C3'        8.8910  -20.1290   13.1150 C.3    59  G59         0.1860
   1198  O3'        8.7330  -19.4260   14.3340 O.3    59  G59        -0.3112
   1199  C2'        8.6700  -19.2240   11.9110 C.3    59  G59         0.2309
   1200  O2'        9.2860  -17.9600   12.0510 O.3    59  G59        -0.2156
   1201  C1'        9.3970  -20.0130   10.8230 C.3    59  G59         0.2408
   1202   N9        8.5320  -21.0080   10.1940 N.ar   59  G59        -0.2693
   1203   C8        8.5060  -22.3660   10.4460 C.ar   59  G59         0.1817
   1204   N7        7.6600  -23.0120    9.6910 N.ar   59  G59        -0.2173
   1205   C5        7.0870  -22.0200    8.8990 C.ar   59  G59         0.1748
   1206   C6        6.1110  -22.1120    7.8650 C.ar   59  G59         0.3023
   1207   O6        5.5530  -23.1340    7.4080 O.2    59  G59        -0.2633
   1208   N.1       5.8090  -20.8520    7.3430 N.ar   59  G59        -0.1709
   1209   C.2       6.3830  -19.6640    7.7510 C.ar   59  G59         0.2606
   1210   N.2       5.9680  -18.5520    7.1380 N.pl3  59  G59        -0.0859
   1211   N.3       7.2980  -19.5750    8.6940 N.ar   59  G59        -0.1918
   1212   C4        7.6020  -20.7770    9.2190 C.ar   59  G59         0.1723
   1213    P.3      7.3070  -19.4360   15.0700 P.3    60  G60         0.2141
   1214  OP1        7.5410  -18.7900   16.3870 O.3    60  G60        -0.4373
   1215  OP2        6.7410  -20.8170   15.0160 O.2    60  G60        -0.5172
   1216  O5'        6.4070  -18.4770   14.1660 O.3    60  G60        -0.3114
   1217  C5'        6.7290  -17.0960   14.0300 C.3    60  G60         0.1812
   1218  C4'        5.8460  -16.4370   12.9930 C.3    60  G60         0.1773
   1219  O4'        6.1210  -17.0160   11.6940 O.3    60  G60        -0.3307
   1220  C3'        4.3480  -16.6180   13.1780 C.3    60  G60         0.1860
   1221  O3'        3.7950  -15.6950   14.1010 O.3    60  G60        -0.3112
   1222  C2'        3.8050  -16.4610   11.7620 C.3    60  G60         0.2309
   1223  O2'        3.5810  -15.1270   11.3260 O.3    60  G60        -0.2156
   1224  C1'        4.9110  -17.1500   10.9590 C.3    60  G60         0.2408
   1225   N9        4.6600  -18.5780   10.8230 N.ar   60  G60        -0.2693
   1226   C8        5.2330  -19.5890   11.5620 C.ar   60  G60         0.1817
   1227   N7        4.8500  -20.7770   11.1870 N.ar   60  G60        -0.2173
   1228   C5        3.9650  -20.5350   10.1460 C.ar   60  G60         0.1748
   1229   C6        3.2350  -21.4400    9.3360 C.ar   60  G60         0.3023
   1230   O6        3.2230  -22.6890    9.3830 O.2    60  G60        -0.2633
   1231   N.1       2.4560  -20.7640    8.3970 N.ar   60  G60        -0.1709
   1232   C.2       2.3860  -19.3980    8.2690 C.ar   60  G60         0.2606
   1233   N.2       1.5740  -18.9400    7.3150 N.pl3  60  G60        -0.0859
   1234   N.3       3.0600  -18.5500    9.0170 N.ar   60  G60        -0.1918
   1235   C4        3.8270  -19.1800    9.9230 C.ar   60  G60         0.1723
   1236    P.3      2.5610  -16.1540   15.0150 P.3    61  C61         0.2141
   1237  OP1        2.3150  -15.0670   15.9970 O.3    61  C61        -0.4373
   1238  OP2        2.8200  -17.5370   15.5030 O.2    61  C61        -0.5172
   1239  O5'        1.3620  -16.2200   13.9680 O.3    61  C61        -0.3114
   1240  C5'        0.9480  -15.0570   13.2730 C.3    61  C61         0.1812
   1241  C4'       -0.1270  -15.3960   12.2700 C.3    61  C61         0.1773
   1242  O4'        0.4490  -16.0940   11.1330 O.3    61  C61        -0.3307
   1243  C3'       -1.2170  -16.3420   12.7420 C.3    61  C61         0.1860
   1244  O3'       -2.1740  -15.7430   13.6160 O.3    61  C61        -0.3112
   1245  C2'       -1.7750  -16.8240   11.4080 C.3    61  C61         0.2309
   1246  O2'       -2.5660  -15.8910   10.7000 O.3    61  C61        -0.2156
   1247  C1'       -0.4770  -17.0620   10.6450 C.3    61  C61         0.2420
   1248   N.1       0.0310  -18.4110   10.9660 N.ar   61  C61        -0.2535
   1249   C.2      -0.5840  -19.5310   10.3740 C.ar   61  C61         0.3532
   1250   O.2      -1.5310  -19.3630    9.5970 O.2    61  C61        -0.2443
   1251   N.3      -0.1370  -20.7680   10.6800 N.ar   61  C61        -0.1739
   1252   C4        0.8690  -20.9230   11.5480 C.ar   61  C61         0.1759
   1253   N.4       1.2680  -22.1770   11.8300 N.pl3  61  C61        -0.1070
   1254   C5        1.5100  -19.8070   12.1660 C.ar   61  C61         0.0566
   1255   C6        1.0690  -18.5820   11.8430 C.ar   61  C61         0.0850
   1256    P.3     -2.7750  -16.5940   14.8520 P.3    62  G62         0.2141
   1257  OP1       -3.5090  -15.6280   15.6930 O.3    62  G62        -0.4373
   1258  OP2       -1.7170  -17.4410   15.4720 O.2    62  G62        -0.5172
   1259  O5'       -3.8630  -17.5430   14.1700 O.3    62  G62        -0.3114
   1260  C5'       -4.9000  -16.9890   13.3760 C.3    62  G62         0.1812
   1261  C4'       -5.5810  -18.0630   12.5640 C.3    62  G62         0.1773
   1262  O4'       -4.6290  -18.6780   11.6550 O.3    62  G62        -0.3307
   1263  C3'       -6.1530  -19.2540   13.3150 C.3    62  G62         0.1860
   1264  O3'       -7.4010  -18.9700   13.9420 O.3    62  G62        -0.3112
   1265  C2'       -6.3080  -20.2650   12.1870 C.3    62  G62         0.2309
   1266  O2'       -7.4270  -19.9960   11.3600 O.3    62  G62        -0.2156
   1267  C1'       -5.0090  -20.0310   11.4130 C.3    62  G62         0.2408
   1268   N9       -3.9380  -20.9100   11.8810 N.ar   62  G62        -0.2693
   1269   C8       -2.8920  -20.5620   12.6950 C.ar   62  G62         0.1817
   1270   N7       -2.0860  -21.5540   12.9430 N.ar   62  G62        -0.2173
   1271   C5       -2.6310  -22.6300   12.2520 C.ar   62  G62         0.1748
   1272   C6       -2.1790  -23.9760   12.1380 C.ar   62  G62         0.3023
   1273   O6       -1.1780  -24.4980   12.6400 O.2    62  G62        -0.2633
   1274   N.1      -3.0270  -24.7340   11.3420 N.ar   62  G62        -0.1709
   1275   C.2      -4.1630  -24.2690   10.7360 C.ar   62  G62         0.2606
   1276   N.2      -4.8670  -25.1740   10.0200 N.pl3  62  G62        -0.0859
   1277   N.3      -4.5900  -23.0110   10.8250 N.ar   62  G62        -0.1918
   1278   C4       -3.7780  -22.2540   11.5950 C.ar   62  G62         0.1723
   1279    P.3     -7.9680  -19.9630   15.0760 P.3    63  A63         0.2141
   1280  OP1       -8.2480  -19.1530   16.2940 O.3    63  A63        -0.4373
   1281  OP2       -7.0710  -21.1470   15.1870 O.2    63  A63        -0.5172
   1282  O5'       -9.3420  -20.4570   14.4460 O.3    63  A63        -0.3114
   1283  C5'      -10.4390  -19.5640   14.2870 C.3    63  A63         0.1812
   1284  C4'      -11.5770  -20.2620   13.5900 C.3    63  A63         0.1773
   1285  O4'      -11.2030  -20.5110   12.2120 O.3    63  A63        -0.3307
   1286  C3'      -11.9300  -21.6330   14.1440 C.3    63  A63         0.1860
   1287  O3'      -12.8220  -21.5440   15.2460 O.3    63  A63        -0.3112
   1288  C2'      -12.5720  -22.3060   12.9430 C.3    63  A63         0.2309
   1289  O2'      -13.9210  -21.9100   12.7590 O.3    63  A63        -0.2156
   1290  C1'      -11.6930  -21.7750   11.8060 C.3    63  A63         0.2408
   1291   N9      -10.5570  -22.6550   11.5600 N.ar   63  A63        -0.2693
   1292   C8       -9.2360  -22.4330   11.8520 C.ar   63  A63         0.1816
   1293   N7       -8.4430  -23.4170   11.5020 N.ar   63  A63        -0.2193
   1294   C5       -9.3000  -24.3540   10.9410 C.ar   63  A63         0.1518
   1295   C6       -9.0740  -25.6190   10.3610 C.ar   63  A63         0.1919
   1296   N6       -7.8630  -26.1880   10.2650 N.pl3  63  A63        -0.1054
   1297   N.1     -10.1490  -26.2890    9.8800 N.ar   63  A63        -0.2040
   1298   C.2     -11.3650  -25.7230    9.9910 C.ar   63  A63         0.2016
   1299   N.3     -11.7020  -24.5470   10.5190 N.ar   63  A63        -0.2048
   1300   C4      -10.6090  -23.9000   10.9760 C.ar   63  A63         0.1692
   1301    P.3    -12.5640  -22.4560   16.5420 P.3    64  A64         0.2141
   1302  OP1      -13.6220  -22.1410   17.5440 O.3    64  A64        -0.4373
   1303  OP2      -11.1380  -22.3240   16.9120 O.2    64  A64        -0.5172
   1304  O5'      -12.7900  -23.9380   16.0110 O.3    64  A64        -0.3114
   1305  C5'      -14.0670  -24.3520   15.5410 C.3    64  A64         0.1812
   1306  C4'      -13.9690  -25.7000   14.8710 C.3    64  A64         0.1773
   1307  O4'      -13.1160  -25.5890   13.7030 O.3    64  A64        -0.3307
   1308  C3'      -13.3190  -26.8090   15.6780 C.3    64  A64         0.1860
   1309  O3'      -14.2180  -27.4110   16.5950 O.3    64  A64        -0.3112
   1310  C2'      -12.9060  -27.7790   14.5860 C.3    64  A64         0.2309
   1311  O2'      -13.9850  -28.5490   14.1050 O.3    64  A64        -0.2156
   1312  C1'      -12.4260  -26.8120   13.5030 C.3    64  A64         0.2408
   1313   N9      -10.9940  -26.5290   13.6220 N.ar   64  A64        -0.2693
   1314   C8      -10.3890  -25.3570   14.0170 C.ar   64  A64         0.1816
   1315   N7       -9.0790  -25.4200   14.0360 N.ar   64  A64        -0.2193
   1316   C5       -8.8000  -26.7190   13.6270 C.ar   64  A64         0.1518
   1317   C6       -7.5890  -27.4200   13.4370 C.ar   64  A64         0.1919
   1318   N6       -6.3850  -26.8990   13.6510 N.pl3  64  A64        -0.1054
   1319   N.1      -7.6620  -28.6940   13.0140 N.ar   64  A64        -0.2040
   1320   C.2      -8.8690  -29.2290   12.7970 C.ar   64  A64         0.2016
   1321   N.3     -10.0760  -28.6810   12.9400 N.ar   64  A64        -0.2048
   1322   C4       -9.9700  -27.4100   13.3620 C.ar   64  A64         0.1692
   1323    P.3    -13.6490  -28.0460   17.9590 P.3    65  G65         0.2141
   1324  OP1      -14.8030  -28.6130   18.7040 O.3    65  G65        -0.4373
   1325  OP2      -12.7870  -27.0340   18.6190 O.2    65  G65        -0.5172
   1326  O5'      -12.7340  -29.2570   17.4660 O.3    65  G65        -0.3114
   1327  C5'      -13.3260  -30.4510   16.9520 C.3    65  G65         0.1812
   1328  C4'      -12.2620  -31.4480   16.5300 C.3    65  G65         0.1773
   1329  O4'      -11.4100  -30.8560   15.5100 O.3    65  G65        -0.3307
   1330  C3'      -11.2800  -31.9360   17.5870 C.3    65  G65         0.1860
   1331  O3'      -11.8060  -33.0160   18.3360 O.3    65  G65        -0.3112
   1332  C2'      -10.1280  -32.4260   16.7240 C.3    65  G65         0.2309
   1333  O2'      -10.3860  -33.6700   16.1040 O.3    65  G65        -0.2156
   1334  C1'      -10.0830  -31.3340   15.6610 C.3    65  G65         0.2408
   1335   N9       -9.2460  -30.2070   16.0660 N.ar   65  G65        -0.2693
   1336   C8       -9.6590  -28.9180   16.3040 C.ar   65  G65         0.1817
   1337   N7       -8.6830  -28.1150   16.6240 N.ar   65  G65        -0.2173
   1338   C5       -7.5570  -28.9220   16.6120 C.ar   65  G65         0.1748
   1339   C6       -6.2070  -28.6030   16.8920 C.ar   65  G65         0.3023
   1340   O6       -5.7260  -27.5000   17.2270 O.2    65  G65        -0.2633
   1341   N.1      -5.3840  -29.7200   16.7510 N.ar   65  G65        -0.1709
   1342   C.2      -5.8170  -30.9840   16.3870 C.ar   65  G65         0.2606
   1343   N.2      -4.8770  -31.9290   16.2580 N.pl3  65  G65        -0.0859
   1344   N.3      -7.0790  -31.2930   16.1510 N.ar   65  G65        -0.1918
   1345   C4       -7.8880  -30.2210   16.2740 C.ar   65  G65         0.1723
   1346    P.3    -11.5670  -33.0840   19.9230 P.3    66  U66         0.2141
   1347  OP1      -12.2750  -34.3290   20.3100 O.2    66  U66        -0.5172
   1348  OP2      -11.9340  -31.7830   20.5650 O.3    66  U66        -0.4373
   1349  O5'       -9.9980  -33.3030   20.1180 O.3    66  U66        -0.3114
   1350  C5'       -9.3470  -34.4730   19.6450 C.3    66  U66         0.1812
   1351  C4'       -7.8460  -34.2980   19.7080 C.3    66  U66         0.1773
   1352  O4'       -7.4560  -33.1560   18.8950 O.3    66  U66        -0.3307
   1353  C3'       -7.2640  -33.9520   21.0650 C.3    66  U66         0.1860
   1354  O3'       -7.1480  -35.1000   21.9130 O.3    66  U66        -0.3112
   1355  C2'       -5.9070  -33.3730   20.6660 C.3    66  U66         0.2309
   1356  O2'       -4.9510  -34.3250   20.2510 O.3    66  U66        -0.2156
   1357  C1'       -6.2780  -32.5720   19.4260 C.3    66  U66         0.2420
   1358   N.1      -6.5270  -31.1420   19.6920 N.ar   66  U66        -0.2534
   1359   C.2      -5.4400  -30.3290   20.0030 C.ar   66  U66         0.3546
   1360   O.2      -4.2930  -30.7420   20.0850 O.2    66  U66        -0.2443
   1361   N.3      -5.7500  -29.0090   20.2160 N.ar   66  U66        -0.1530
   1362   C4       -7.0000  -28.4250   20.1590 C.ar   66  U66         0.2846
   1363   O4       -7.1220  -27.2180   20.4000 O.2    66  U66        -0.2650
   1364   C5       -8.0590  -29.3220   19.8410 C.ar   66  U66         0.0814
   1365   C6       -7.7950  -30.6140   19.6260 C.ar   66  U66         0.0870
   1366    P.3     -8.0880  -35.2460   23.2250 P.3    67  C67         0.2141
   1367  OP1       -8.7150  -36.5830   23.1150 O.2    67  C67        -0.5172
   1368  OP2       -8.9550  -34.0500   23.3920 O.3    67  C67        -0.4373
   1369  O5'       -7.0730  -35.3030   24.4530 O.3    67  C67        -0.3114
   1370  C5'       -5.9600  -36.1840   24.4360 C.3    67  C67         0.1812
   1371  C4'       -4.6910  -35.3900   24.5470 C.3    67  C67         0.1773
   1372  O4'       -4.7260  -34.3610   23.5280 O.3    67  C67        -0.3307
   1373  C3'       -4.5260  -34.6080   25.8390 C.3    67  C67         0.1860
   1374  O3'       -3.9510  -35.4160   26.8610 O.3    67  C67        -0.3112
   1375  C2'       -3.5930  -33.4750   25.4250 C.3    67  C67         0.2309
   1376  O2'       -2.2230  -33.8340   25.3990 O.3    67  C67        -0.2156
   1377  C1'       -4.0730  -33.1920   24.0020 C.3    67  C67         0.2420
   1378   N.1      -4.9730  -32.0270   23.8690 N.ar   67  C67        -0.2535
   1379   C.2      -4.4170  -30.7510   23.9160 C.ar   67  C67         0.3532
   1380   O.2      -3.1910  -30.6440   24.0610 O.2    67  C67        -0.2443
   1381   N.3      -5.2230  -29.6680   23.7980 N.ar   67  C67        -0.1739
   1382   C4       -6.5350  -29.8320   23.6260 C.ar   67  C67         0.1759
   1383   N.4      -7.3010  -28.7410   23.5110 N.pl3  67  C67        -0.1070
   1384   C5       -7.1260  -31.1220   23.5660 C.ar   67  C67         0.0566
   1385   C6       -6.3190  -32.1810   23.6960 C.ar   67  C67         0.0850
   1386    P.3     -4.3660  -35.1720   28.4000 P.3    68  G68         0.2141
   1387  OP1       -3.7760  -36.2780   29.2010 O.3    68  G68        -0.4373
   1388  OP2       -5.8340  -34.8990   28.4740 O.2    68  G68        -0.5172
   1389  O5'       -3.5880  -33.8420   28.7960 O.3    68  G68        -0.3114
   1390  C5'       -2.1750  -33.8560   28.8830 C.3    68  G68         0.1812
   1391  C4'       -1.6240  -32.4540   28.9680 C.3    68  G68         0.1773
   1392  O4'       -1.9660  -31.6850   27.7900 O.3    68  G68        -0.3307
   1393  C3'       -2.1170  -31.5440   30.0740 C.3    68  G68         0.1860
   1394  O3'       -1.5480  -31.9070   31.3150 O.3    68  G68        -0.3112
   1395  C2'       -1.5720  -30.2040   29.5960 C.3    68  G68         0.2309
   1396  O2'       -0.1850  -30.0410   29.8100 O.3    68  G68        -0.2156
   1397  C1'       -1.7960  -30.3130   28.0910 C.3    68  G68         0.2408
   1398   N9       -2.9640  -29.5620   27.6750 N.ar   68  G68        -0.2693
   1399   C8       -4.2000  -30.0160   27.2680 C.ar   68  G68         0.1817
   1400   N7       -5.0110  -29.0440   26.9420 N.ar   68  G68        -0.2173
   1401   C5       -4.2620  -27.8900   27.1570 C.ar   68  G68         0.1748
   1402   C6       -4.5940  -26.5350   26.9750 C.ar   68  G68         0.3023
   1403   O6       -5.6560  -26.0550   26.5660 O.2    68  G68        -0.2633
   1404   N.1      -3.5340  -25.6990   27.3210 N.ar   68  G68        -0.1709
   1405   C.2      -2.3090  -26.1230   27.7810 C.ar   68  G68         0.2606
   1406   N.2      -1.4090  -25.1750   28.0740 N.pl3  68  G68        -0.0859
   1407   N.3      -1.9890  -27.3820   27.9440 N.ar   68  G68        -0.1918
   1408   C4       -3.0050  -28.2030   27.6160 C.ar   68  G68         0.1723
   1409    P.3     -2.2040  -31.3720   32.6760 P.3    69  C69         0.2141
   1410  OP1       -1.3820  -31.9520   33.7810 O.3    69  C69        -0.4373
   1411  OP2       -3.6740  -31.6120   32.6390 O.2    69  C69        -0.5172
   1412  O5'       -1.9360  -29.8000   32.6390 O.3    69  C69        -0.3114
   1413  C5'       -0.6120  -29.2910   32.7500 C.3    69  C69         0.1813
   1414  C4'       -0.6110  -27.7810   32.6900 C.3    69  C69         0.1801
   1415  O4'       -1.1580  -27.3140   31.4310 O.3    69  C69        -0.3306
   1416  C3'       -1.4630  -27.0690   33.7120 C.3    69  C69         0.2161
   1417  O3'       -0.9220  -27.2220   35.0240 O.3    69  C69        -0.2175
   1418  C2'       -1.6100  -25.6810   33.0880 C.3    69  C69         0.2338
   1419  O2'       -0.4830  -24.8390   33.2130 O.3    69  C69        -0.2155
   1420  C1'       -1.7500  -26.0370   31.6130 C.3    69  C69         0.2421
   1421   N.1      -3.1450  -26.0670   31.1370 N.ar   69  C69        -0.2535
   1422   C.2      -3.7430  -24.8520   30.7540 C.ar   69  C69         0.3532
   1423   O.2      -3.1060  -23.7750   30.9310 O.2    69  C69        -0.2443
   1424   N.3      -4.9970  -24.8790   30.2090 N.ar   69  C69        -0.1739
   1425   C4       -5.6480  -26.0450   30.0730 C.ar   69  C69         0.1759
   1426   N.4      -6.8660  -26.0270   29.5030 N.pl3  69  C69        -0.1070
   1427   C5       -5.0780  -27.2810   30.5080 C.ar   69  C69         0.0566
   1428   C6       -3.8430  -27.2460   31.0310 C.ar   69  C69         0.0850
   1429  OP.3     -18.0430  -25.7750   25.9350 O.3    70  U70         0.0000
   1430  O5'      -18.2360  -23.4650   24.9820 O.3    70  U70        -0.2176
   1431  C5'      -18.4790  -22.4730   23.9750 C.3    70  U70         0.2141
   1432  C4'      -18.2960  -21.0700   24.5120 C.3    70  U70         0.1802
   1433  O4'      -18.5730  -21.0770   25.9410 O.3    70  U70        -0.3306
   1434  C3'      -16.8970  -20.4800   24.4200 C.3    70  U70         0.1861
   1435  O3'      -16.6670  -19.9200   23.1320 O.3    70  U70        -0.3112
   1436  C2'      -16.9350  -19.4230   25.5200 C.3    70  U70         0.2309
   1437  O2'      -17.6580  -18.2560   25.1700 O.3    70  U70        -0.2156
   1438  C1'      -17.7040  -20.1690   26.6120 C.3    70  U70         0.2420
   1439   N.1     -16.8380  -20.9350   27.5350 N.ar   70  U70        -0.2534
   1440   C.2     -16.0650  -20.2340   28.4480 C.ar   70  U70         0.3546
   1441   O.2     -16.0950  -19.0160   28.5520 O.2    70  U70        -0.2443
   1442   N.3     -15.2490  -21.0130   29.2360 N.ar   70  U70        -0.1530
   1443   C4      -15.1280  -22.3900   29.2150 C.ar   70  U70         0.2846
   1444   O4      -14.3110  -22.9480   29.9600 O.2    70  U70        -0.2650
   1445   C5      -15.9770  -23.0410   28.2670 C.ar   70  U70         0.0814
   1446   C6      -16.7810  -22.3170   27.4840 C.ar   70  U70         0.0870
   1447    P.3    -15.2230  -20.0820   22.4340 P.3    71  U71         0.2141
   1448  OP1      -15.4400  -19.5650   21.0530 O.2    71  U71        -0.5172
   1449  OP2      -14.6600  -21.4510   22.6340 O.3    71  U71        -0.4373
   1450  O5'      -14.2890  -19.0650   23.2310 O.3    71  U71        -0.3114
   1451  C5'      -14.5090  -17.6650   23.1400 C.3    71  U71         0.1812
   1452  C4'      -13.8300  -16.9460   24.2780 C.3    71  U71         0.1773
   1453  O4'      -14.3160  -17.4520   25.5530 O.3    71  U71        -0.3307
   1454  C3'      -12.3380  -17.1550   24.4380 C.3    71  U71         0.1860
   1455  O3'      -11.5550  -16.4580   23.4860 O.3    71  U71        -0.3112
   1456  C2'      -12.1350  -16.6120   25.8410 C.3    71  U71         0.2309
   1457  O2'      -12.2840  -15.2190   25.9330 O.3    71  U71        -0.2156
   1458  C1'      -13.3210  -17.2420   26.5490 C.3    71  U71         0.2420
   1459   N.1     -12.8740  -18.5150   27.1140 N.ar   71  U71        -0.2534
   1460   C.2     -12.0580  -18.4110   28.1860 C.ar   71  U71         0.3546
   1461   O.2     -11.7160  -17.3340   28.6280 O.2    71  U71        -0.2443
   1462   N.3     -11.6420  -19.5940   28.7190 N.ar   71  U71        -0.1530
   1463   C4      -11.9540  -20.8450   28.2800 C.ar   71  U71         0.2846
   1464   O4      -11.5210  -21.8170   28.8900 O.2    71  U71        -0.2650
   1465   C5      -12.8050  -20.8810   27.1410 C.ar   71  U71         0.0814
   1466   C6      -13.2300  -19.7360   26.6080 C.ar   71  U71         0.0870
   1467    P.3    -10.1140  -17.0350   23.0810 P.3    72  G72         0.2141
   1468  OP1       -9.5120  -15.9830   22.2270 O.2    72  G72        -0.5172
   1469  OP2      -10.2510  -18.4280   22.5660 O.3    72  G72        -0.4373
   1470  O5'       -9.3160  -17.1200   24.4580 O.3    72  G72        -0.3114
   1471  C5'       -8.8840  -15.9490   25.1380 C.3    72  G72         0.1812
   1472  C4'       -7.7480  -16.2840   26.0720 C.3    72  G72         0.1773
   1473  O4'       -8.2370  -17.1450   27.1270 O.3    72  G72        -0.3307
   1474  C3'       -6.6150  -17.0960   25.4740 C.3    72  G72         0.1860
   1475  O3'       -5.7310  -16.2800   24.7170 O.3    72  G72        -0.3112
   1476  C2'       -5.9670  -17.6750   26.7220 C.3    72  G72         0.2309
   1477  O2'       -5.1290  -16.7670   27.4160 O.3    72  G72        -0.2156
   1478  C1'       -7.1990  -17.9980   27.5700 C.3    72  G72         0.2408
   1479   N9       -7.6380  -19.3870   27.4770 N.ar   72  G72        -0.2693
   1480   C8       -8.7240  -19.8740   26.7990 C.ar   72  G72         0.1817
   1481   N7       -8.8490  -21.1710   26.8960 N.ar   72  G72        -0.2173
   1482   C5       -7.7830  -21.5650   27.6920 C.ar   72  G72         0.1748
   1483   C6       -7.3970  -22.8570   28.1430 C.ar   72  G72         0.3023
   1484   O6       -7.9660  -23.9520   27.9500 O.2    72  G72        -0.2633
   1485   N.1      -6.2310  -22.8050   28.9000 N.ar   72  G72        -0.1709
   1486   C.2      -5.5390  -21.6630   29.2050 C.ar   72  G72         0.2606
   1487   N.2      -4.4250  -21.8160   29.9400 N.pl3  72  G72        -0.0859
   1488   N.3      -5.9050  -20.4550   28.8160 N.ar   72  G72        -0.1918
   1489   C4       -7.0240  -20.4800   28.0610 C.ar   72  G72         0.1723
   1490    P.3     -4.9140  -16.9140   23.4850 P.3    73  C73         0.2141
   1491  OP1       -4.3840  -15.7670   22.7050 O.2    73  C73        -0.5172
   1492  OP2       -5.7220  -17.9650   22.7970 O.3    73  C73        -0.4373
   1493  O5'       -3.7100  -17.6430   24.2170 O.3    73  C73        -0.3114
   1494  C5'       -2.8320  -16.9160   25.0700 C.3    73  C73         0.1812
   1495  C4'       -1.8600  -17.8590   25.7420 C.3    73  C73         0.1773
   1496  O4'       -2.5330  -18.5860   26.8100 O.3    73  C73        -0.3307
   1497  C3'       -1.2890  -18.9590   24.8540 C.3    73  C73         0.1860
   1498  O3'       -0.2080  -18.5380   24.0430 O.3    73  C73        -0.3112
   1499  C2'       -0.8670  -19.9910   25.8810 C.3    73  C73         0.2309
   1500  O2'        0.3380  -19.6280   26.5250 O.3    73  C73        -0.2156
   1501  C1'       -2.0540  -19.9300   26.8460 C.3    73  C73         0.2420
   1502   N.1      -3.1350  -20.8390   26.4150 N.ar   73  C73        -0.2535
   1503   C.2      -3.1040  -22.1610   26.8540 C.ar   73  C73         0.3532
   1504   O.2      -2.1720  -22.5190   27.5960 O.2    73  C73        -0.2443
   1505   N.3      -4.0800  -23.0190   26.4540 N.ar   73  C73        -0.1739
   1506   C4       -5.0500  -22.5910   25.6440 C.ar   73  C73         0.1759
   1507   N.4      -5.9840  -23.4660   25.2600 N.pl3  73  C73        -0.1070
   1508   C5       -5.1060  -21.2450   25.1840 C.ar   73  C73         0.0566
   1509   C6       -4.1420  -20.4110   25.5900 C.ar   73  C73         0.0850
   1510    P.3      0.0730  -19.2940   22.6520 P.3    74  G74         0.2141
   1511  OP1        1.2510  -18.6230   22.0470 O.3    74  G74        -0.4373
   1512  OP2       -1.1780  -19.4330   21.8570 O.2    74  G74        -0.5172
   1513  O5'        0.5050  -20.7540   23.1120 O.3    74  G74        -0.3114
   1514  C5'        1.7370  -20.9550   23.7840 C.3    74  G74         0.1812
   1515  C4'        1.8890  -22.4010   24.1840 C.3    74  G74         0.1773
   1516  O4'        0.7500  -22.7760   24.9940 O.3    74  G74        -0.3307
   1517  C3'        1.8620  -23.4580   23.0920 C.3    74  G74         0.1860
   1518  O3'        3.1020  -23.5770   22.4200 O.3    74  G74        -0.3112
   1519  C2'        1.5870  -24.7040   23.9170 C.3    74  G74         0.2309
   1520  O2'        2.7280  -25.1290   24.6370 O.3    74  G74        -0.2156
   1521  C1'        0.5400  -24.1720   24.8910 C.3    74  G74         0.2408
   1522   N9       -0.8180  -24.3910   24.4040 N.ar   74  G74        -0.2693
   1523   C8       -1.7300  -23.4560   23.9630 C.ar   74  G74         0.1817
   1524   N7       -2.8690  -23.9860   23.5970 N.ar   74  G74        -0.2173
   1525   C5       -2.6970  -25.3460   23.8130 C.ar   74  G74         0.1748
   1526   C6       -3.5850  -26.4330   23.6070 C.ar   74  G74         0.3023
   1527   O6       -4.7580  -26.4100   23.2050 O.2    74  G74        -0.2633
   1528   N.1      -2.9800  -27.6470   23.9250 N.ar   74  G74        -0.1709
   1529   C.2      -1.6840  -27.7960   24.3900 C.ar   74  G74         0.2606
   1530   N.2      -1.2430  -29.0480   24.5960 N.pl3  74  G74        -0.0859
   1531   N.3      -0.8700  -26.7900   24.6190 N.ar   74  G74        -0.1918
   1532   C4       -1.4310  -25.6070   24.3040 C.ar   74  G74         0.1723
   1533    P.3      3.1850  -24.4180   21.0600 P.3    75  U75         0.2141
   1534  OP1        4.6090  -24.3940   20.6630 O.3    75  U75        -0.4373
   1535  OP2        2.1420  -23.9460   20.1080 O.2    75  U75        -0.5172
   1536  O5'        2.8040  -25.9080   21.4780 O.3    75  U75        -0.3114
   1537  C5'        3.7350  -26.7530   22.1500 C.3    75  U75         0.1812
   1538  C4'        3.2210  -28.1810   22.2110 C.3    75  U75         0.1773
   1539  O4'        1.9060  -28.1950   22.8410 O.3    75  U75        -0.3307
   1540  C3'        2.9830  -28.8950   20.8890 C.3    75  U75         0.1860
   1541  O3'        4.1870  -29.3970   20.3070 O.3    75  U75        -0.3112
   1542  C2'        2.0160  -30.0010   21.3080 C.3    75  U75         0.2309
   1543  O2'        2.6170  -31.1180   21.9490 O.3    75  U75        -0.2156
   1544  C1'        1.1220  -29.2510   22.3010 C.3    75  U75         0.2420
   1545   N.1      -0.1160  -28.7190   21.6970 N.ar   75  U75        -0.2534
   1546   C.2      -1.1140  -29.6370   21.3400 C.ar   75  U75         0.3546
   1547   O.2      -1.0120  -30.8510   21.5000 O.2    75  U75        -0.2443
   1548   N.3      -2.2380  -29.0820   20.7860 N.ar   75  U75        -0.1530
   1549   C4       -2.4790  -27.7480   20.5570 C.ar   75  U75         0.2846
   1550   O4       -3.5710  -27.4090   20.1140 O.2    75  U75        -0.2650
   1551   C5       -1.4170  -26.8690   20.9380 C.ar   75  U75         0.0814
   1552   C6       -0.3010  -27.3710   21.4820 C.ar   75  U75         0.0870
   1553    P.3      4.3780  -29.3760   18.7010 P.3    76  C76         0.2141
   1554  OP1        5.8020  -29.7140   18.4470 O.3    76  C76        -0.4373
   1555  OP2        3.8170  -28.1180   18.1360 O.2    76  C76        -0.5172
   1556  O5'        3.4550  -30.5670   18.1820 O.3    76  C76        -0.3114
   1557  C5'        3.6870  -31.9110   18.5910 C.3    76  C76         0.1812
   1558  C4'        2.5590  -32.8090   18.1300 C.3    76  C76         0.1773
   1559  O4'        1.3450  -32.4930   18.8590 O.3    76  C76        -0.3307
   1560  C3'        2.1230  -32.7030   16.6770 C.3    76  C76         0.1860
   1561  O3'        2.9870  -33.4020   15.8060 O.3    76  C76        -0.3112
   1562  C2'        0.7490  -33.3470   16.7430 C.3    76  C76         0.2309
   1563  O2'        0.8030  -34.7440   16.9510 O.3    76  C76        -0.2156
   1564  C1'        0.2170  -32.7130   18.0210 C.3    76  C76         0.2420
   1565   N.1      -0.4580  -31.4210   17.7920 N.ar   76  C76        -0.2535
   1566   C.2      -1.8360  -31.4160   17.5460 C.ar   76  C76         0.3532
   1567   O.2      -2.4330  -32.5030   17.4250 O.2    76  C76        -0.2443
   1568   N.3      -2.4840  -30.2360   17.4380 N.ar   76  C76        -0.1739
   1569   C4       -1.8080  -29.0950   17.5420 C.ar   76  C76         0.1759
   1570   N.4      -2.4970  -27.9550   17.4830 N.pl3  76  C76        -0.1070
   1571   C5       -0.3970  -29.0710   17.7250 C.ar   76  C76         0.0566
   1572   C6        0.2310  -30.2440   17.8450 C.ar   76  C76         0.0850
   1573    P.3      3.2380  -32.8520   14.3180 P.3    77  A77         0.2141
   1574  OP1        4.2860  -33.7570   13.7870 O.2    77  A77        -0.5172
   1575  OP2        3.4770  -31.3820   14.3300 O.3    77  A77        -0.4373
   1576  O5'        1.8620  -33.1280   13.5560 O.3    77  A77        -0.3114
   1577  C5'        1.3860  -34.4560   13.3830 C.3    77  A77         0.1812
   1578  C4'        0.0150  -34.4510   12.7610 C.3    77  A77         0.1773
   1579  O4'       -0.9580  -33.9590   13.7170 O.3    77  A77        -0.3307
   1580  C3'       -0.1630  -33.5620   11.5450 C.3    77  A77         0.1860
   1581  O3'        0.3140  -34.1720   10.3540 O.3    77  A77        -0.3112
   1582  C2'       -1.6690  -33.3340   11.5450 C.3    77  A77         0.2309
   1583  O2'       -2.4010  -34.4130   11.0010 O.3    77  A77        -0.2156
   1584  C1'       -1.9420  -33.1860   13.0460 C.3    77  A77         0.2408
   1585   N9       -1.7820  -31.7920   13.4710 N.ar   77  A77        -0.2693
   1586   C8       -0.6250  -31.1760   13.8820 C.ar   77  A77         0.1816
   1587   N7       -0.7710  -29.9020   14.1520 N.ar   77  A77        -0.2193
   1588   C5       -2.1150  -29.6610   13.9110 C.ar   77  A77         0.1518
   1589   C6       -2.8980  -28.4940   13.9990 C.ar   77  A77         0.1919
   1590   N6       -2.4140  -27.2990   14.3470 N.pl3  77  A77        -0.1054
   1591   N.1      -4.2110  -28.5960   13.7050 N.ar   77  A77        -0.2040
   1592   C.2      -4.6930  -29.7860   13.3350 C.ar   77  A77         0.2016
   1593   N.3      -4.0570  -30.9520   13.2040 N.ar   77  A77        -0.2048
   1594   C4       -2.7550  -30.8200   13.5100 C.ar   77  A77         0.1692
   1595    P.3      0.7690  -33.2430    9.1200 P.3    78  C78         0.2141
   1596  OP1        1.1310  -34.1510    8.0020 O.2    78  C78        -0.5172
   1597  OP2        1.7430  -32.2100    9.5570 O.3    78  C78        -0.4373
   1598  O5'       -0.5790  -32.4820    8.7470 O.3    78  C78        -0.3114
   1599  C5'       -1.7300  -33.2000    8.2950 C.3    78  C78         0.1812
   1600  C4'       -2.8170  -32.2330    7.9380 C.3    78  C78         0.1773
   1601  O4'       -3.2200  -31.5670    9.1550 O.3    78  C78        -0.3307
   1602  C3'       -2.3700  -31.0950    7.0340 C.3    78  C78         0.1860
   1603  O3'       -2.3990  -31.4430    5.6550 O.3    78  C78        -0.3112
   1604  C2'       -3.3700  -30.0040    7.3760 C.3    78  C78         0.2309
   1605  O2'       -4.6220  -30.1520    6.7480 O.3    78  C78        -0.2156
   1606  C1'       -3.5230  -30.2090    8.8810 C.3    78  C78         0.2420
   1607   N.1      -2.6170  -29.3510    9.6720 N.ar   78  C78        -0.2535
   1608   C.2      -3.0850  -28.0980   10.1250 C.ar   78  C78         0.3532
   1609   O.2      -4.2580  -27.7600    9.8780 O.2    78  C78        -0.2443
   1610   N.3      -2.2490  -27.2940   10.8230 N.ar   78  C78        -0.1739
   1611   C4       -1.0090  -27.6940   11.0890 C.ar   78  C78         0.1759
   1612   N.4      -0.2330  -26.8750   11.7810 N.pl3  78  C78        -0.1070
   1613   C5       -0.5110  -28.9580   10.6550 C.ar   78  C78         0.0566
   1614   C6       -1.3390  -29.7490    9.9540 C.ar   78  C78         0.0850
   1615    P.3     -1.5770  -30.5570    4.5920 P.3    79  G79         0.2141
   1616  OP1       -1.7920  -31.1770    3.2620 O.2    79  G79        -0.5172
   1617  OP2       -0.1890  -30.3380    5.0810 O.3    79  G79        -0.4373
   1618  O5'       -2.3210  -29.1510    4.6120 O.3    79  G79        -0.3114
   1619  C5'       -3.6580  -29.0230    4.1520 C.3    79  G79         0.1812
   1620  C4'       -4.1110  -27.5920    4.2670 C.3    79  G79         0.1773
   1621  O4'       -4.2550  -27.2310    5.6640 O.3    79  G79        -0.3307
   1622  C3'       -3.1490  -26.5550    3.7110 C.3    79  G79         0.1860
   1623  O3'       -3.2940  -26.4330    2.2960 O.3    79  G79        -0.3112
   1624  C2'       -3.5820  -25.3020    4.4620 C.3    79  G79         0.2309
   1625  O2'       -4.7700  -24.7280    3.9500 O.3    79  G79        -0.2156
   1626  C1'       -3.8730  -25.8740    5.8480 C.3    79  G79         0.2408
   1627   N9       -2.7050  -25.8330    6.7200 N.ar   79  G79        -0.2693
   1628   C8       -1.8350  -26.8610    6.9930 C.ar   79  G79         0.1817
   1629   N7       -0.8790  -26.5210    7.8080 N.ar   79  G79        -0.2173
   1630   C5       -1.1310  -25.1850    8.0910 C.ar   79  G79         0.1748
   1631   C6       -0.4210  -24.2570    8.9260 C.ar   79  G79         0.3023
   1632   O6        0.6230  -24.4380    9.5990 O.2    79  G79        -0.2633
   1633   N.1      -1.0400  -23.0120    8.9320 N.ar   79  G79        -0.1709
   1634   C.2      -2.1790  -22.6900    8.2310 C.ar   79  G79         0.2606
   1635   N.2      -2.6360  -21.4260    8.3810 N.pl3  79  G79        -0.0859
   1636   N.3      -2.8300  -23.5380    7.4460 N.ar   79  G79        -0.1918
   1637   C4       -2.2590  -24.7520    7.4270 C.ar   79  G79         0.1723
   1638    P.3     -2.0580  -25.9110    1.4010 P.3    80  C80         0.2141
   1639  OP1       -2.4580  -26.1260   -0.0160 O.2    80  C80        -0.5172
   1640  OP2       -0.7640  -26.4730    1.8930 O.3    80  C80        -0.4373
   1641  O5'       -2.0270  -24.3460    1.6820 O.3    80  C80        -0.3114
   1642  C5'       -3.1280  -23.5240    1.3340 C.3    80  C80         0.1812
   1643  C4'       -2.9410  -22.1440    1.9040 C.3    80  C80         0.1773
   1644  O4'       -2.9780  -22.2130    3.3510 O.3    80  C80        -0.3307
   1645  C3'       -1.6070  -21.4850    1.6190 C.3    80  C80         0.1860
   1646  O3'       -1.5850  -20.8970    0.3370 O.3    80  C80        -0.3112
   1647  C2'       -1.5360  -20.4480    2.7260 C.3    80  C80         0.2309
   1648  O2'       -2.3770  -19.3350    2.4860 O.3    80  C80        -0.2156
   1649  C1'       -2.0820  -21.2580    3.9000 C.3    80  C80         0.2420
   1650   N.1      -1.0210  -21.9820    4.6290 N.ar   80  C80        -0.2535
   1651   C.2      -0.3360  -21.3170    5.6570 C.ar   80  C80         0.3532
   1652   O.2      -0.6320  -20.1260    5.9150 O.2    80  C80        -0.2443
   1653   N.3       0.6330  -21.9850    6.3430 N.ar   80  C80        -0.1739
   1654   C4        0.9220  -23.2510    6.0320 C.ar   80  C80         0.1759
   1655   N.4       1.8720  -23.8640    6.7360 N.pl3  80  C80        -0.1070
   1656   C5        0.2470  -23.9420    4.9870 C.ar   80  C80         0.0566
   1657   C6       -0.7060  -23.2790    4.3190 C.ar   80  C80         0.0850
   1658    P.3     -0.2470  -20.9700   -0.5350 P.3    81  C81         0.2141
   1659  OP1       -0.6380  -20.5090   -1.8860 O.2    81  C81        -0.5172
   1660  OP2        0.3830  -22.3100   -0.3700 O.3    81  C81        -0.4373
   1661  O5'        0.7120  -19.8880    0.1340 O.3    81  C81        -0.3114
   1662  C5'        0.3380  -18.5180    0.1960 C.3    81  C81         0.1812
   1663  C4'        1.1610  -17.7910    1.2340 C.3    81  C81         0.1773
   1664  O4'        0.9250  -18.3820    2.5410 O.3    81  C81        -0.3307
   1665  C3'        2.6750  -17.8510    1.1110 C.3    81  C81         0.1860
   1666  O3'        3.1690  -16.9660    0.1140 O.3    81  C81        -0.3112
   1667  C2'        3.1020  -17.4470    2.5200 C.3    81  C81         0.2309
   1668  O2'        2.9860  -16.0620    2.7930 O.3    81  C81        -0.2156
   1669  C1'        2.0780  -18.2110    3.3590 C.3    81  C81         0.2420
   1670   N.1       2.5890  -19.5280    3.7800 N.ar   81  C81        -0.2535
   1671   C.2       3.6340  -19.5660    4.7060 C.ar   81  C81         0.3532
   1672   O.2       4.0510  -18.4960    5.1720 O.2    81  C81        -0.2443
   1673   N.3       4.1610  -20.7610    5.0660 N.ar   81  C81        -0.1739
   1674   C4        3.6790  -21.8920    4.5330 C.ar   81  C81         0.1759
   1675   N.4       4.2530  -23.0570    4.8800 N.pl3  81  C81        -0.1070
   1676   C5        2.5910  -21.8830    3.6090 C.ar   81  C81         0.0566
   1677   C6        2.0790  -20.6900    3.2670 C.ar   81  C81         0.0850
   1678    P.3      4.5530  -17.3000   -0.6450 P.3    82  G82         0.2141
   1679  OP1        4.7180  -16.2030   -1.6320 O.2    82  G82        -0.5172
   1680  OP2        4.5780  -18.7160   -1.1050 O.3    82  G82        -0.4373
   1681  O5'        5.6730  -17.1190    0.4760 O.3    82  G82        -0.3114
   1682  C5'        5.9870  -15.8260    0.9750 C.3    82  G82         0.1812
   1683  C4'        7.0460  -15.9120    2.0370 C.3    82  G82         0.1773
   1684  O4'        6.5320  -16.6700    3.1590 O.3    82  G82        -0.3307
   1685  C3'        8.3160  -16.6520    1.6600 C.3    82  G82         0.1860
   1686  O3'        9.2070  -15.8330    0.9130 O.3    82  G82        -0.3112
   1687  C2'        8.8670  -17.0010    3.0340 C.3    82  G82         0.2309
   1688  O2'        9.4260  -15.8780    3.6770 O.3    82  G82        -0.2156
   1689  C1'        7.5870  -17.4090    3.7600 C.3    82  G82         0.2408
   1690   N9        7.2770  -18.8310    3.6260 N.ar   82  G82        -0.2693
   1691   C8        6.4100  -19.3990    2.7220 C.ar   82  G82         0.1817
   1692   N7        6.3270  -20.6990    2.8300 N.ar   82  G82        -0.2173
   1693   C5        7.1910  -21.0140    3.8670 C.ar   82  G82         0.1748
   1694   C6        7.5170  -22.2760    4.4340 C.ar   82  G82         0.3023
   1695   O6        7.1030  -23.4070    4.1060 O.2    82  G82        -0.2633
   1696   N.1       8.4340  -22.1380    5.4770 N.ar   82  G82        -0.1709
   1697   C.2       8.9830  -20.9420    5.8970 C.ar   82  G82         0.2606
   1698   N.2       9.8770  -21.0150    6.8890 N.pl3  82  G82        -0.0859
   1699   N.3       8.6850  -19.7630    5.3740 N.ar   82  G82        -0.1918
   1700   C4        7.7890  -19.8710    4.3720 C.ar   82  G82         0.1723
   1701    P.3     10.4770  -16.4950    0.1800 P.3    83  G83         0.2141
   1702  OP1       11.2290  -15.3880   -0.4550 O.3    83  G83        -0.4373
   1703  OP2       10.0090  -17.6360   -0.6600 O.2    83  G83        -0.5172
   1704  O5'       11.3810  -17.0420    1.3820 O.3    83  G83        -0.3114
   1705  C5'       12.1100  -16.1480    2.2320 C.3    83  G83         0.1812
   1706  C4'       12.9340  -16.9210    3.2420 C.3    83  G83         0.1773
   1707  O4'       12.0400  -17.6840    4.0930 O.3    83  G83        -0.3307
   1708  C3'       13.8640  -17.9800    2.6730 C.3    83  G83         0.1860
   1709  O3'       15.1030  -17.4570    2.2210 O.3    83  G83        -0.3112
   1710  C2'       14.0430  -18.9250    3.8500 C.3    83  G83         0.2309
   1711  O2'       14.9650  -18.4540    4.8130 O.3    83  G83        -0.2156
   1712  C1'       12.6250  -18.9450    4.4120 C.3    83  G83         0.2408
   1713   N9       11.7950  -19.9910    3.8180 N.ar   83  G83        -0.2693
   1714   C8       10.7870  -19.8160    2.8990 C.ar   83  G83         0.1817
   1715   N7       10.2150  -20.9310    2.5410 N.ar   83  G83        -0.2173
   1716   C5       10.8850  -21.9070    3.2640 C.ar   83  G83         0.1748
   1717   C6       10.7020  -23.3270    3.2900 C.ar   83  G83         0.3023
   1718   O6        9.8890  -24.0100    2.6590 O.2    83  G83        -0.2633
   1719   N.1      11.5910  -23.9410    4.1660 N.ar   83  G83        -0.1709
   1720   C.2      12.5360  -23.2760    4.9240 C.ar   83  G83         0.2606
   1721   N.2      13.3020  -24.0430    5.7150 N.pl3  83  G83        -0.0859
   1722   N.3      12.7160  -21.9540    4.9090 N.ar   83  G83        -0.1918
   1723   C4       11.8630  -21.3410    4.0620 C.ar   83  G83         0.1723
   1724    P.3     15.7330  -18.0090    0.8470 P.3    84  C84         0.2141
   1725  OP1       16.7660  -17.0260    0.4240 O.3    84  C84        -0.4373
   1726  OP2       14.6020  -18.3480   -0.0690 O.2    84  C84        -0.5172
   1727  O5'       16.4700  -19.3620    1.2520 O.3    84  C84        -0.3114
   1728  C5'       17.5190  -19.3500    2.2130 C.3    84  C84         0.1812
   1729  C4'       17.8090  -20.7500    2.7000 C.3    84  C84         0.1773
   1730  O4'       16.6500  -21.2630    3.4180 O.3    84  C84        -0.3307
   1731  C3'       18.0420  -21.8120    1.6390 C.3    84  C84         0.1860
   1732  O3'       19.3330  -21.7850    1.0450 O.3    84  C84        -0.3112
   1733  C2'       17.8090  -23.0740    2.4510 C.3    84  C84         0.2309
   1734  O2'       18.8590  -23.3580    3.3480 O.3    84  C84        -0.2156
   1735  C1'       16.5570  -22.6720    3.2280 C.3    84  C84         0.2420
   1736   N.1      15.3420  -23.0060    2.4460 N.ar   84  C84        -0.2535
   1737   C.2      14.9200  -24.3470    2.4270 C.ar   84  C84         0.3532
   1738   O.2      15.5510  -25.1870    3.0990 O.2    84  C84        -0.2443
   1739   N.3      13.8440  -24.6940    1.6780 N.ar   84  C84        -0.1739
   1740   C4       13.1910  -23.7620    0.9760 C.ar   84  C84         0.1759
   1741   N.4      12.1320  -24.1530    0.2590 N.pl3  84  C84        -0.1070
   1742   C5       13.5920  -22.3900    0.9830 C.ar   84  C84         0.0566
   1743   C6       14.6580  -22.0600    1.7290 C.ar   84  C84         0.0850
   1744    P.3     19.5230  -22.3340   -0.4590 P.3    85  G85         0.2141
   1745  OP1       20.9400  -22.0640   -0.8350 O.3    85  G85        -0.4373
   1746  OP2       18.4170  -21.8040   -1.3000 O.2    85  G85        -0.5172
   1747  O5'       19.3330  -23.9150   -0.3440 O.3    85  G85        -0.3114
   1748  C5'       20.2390  -24.7050    0.4190 C.3    85  G85         0.1812
   1749  C4'       19.7580  -26.1300    0.4960 C.3    85  G85         0.1773
   1750  O4'       18.4380  -26.1420    1.0980 O.3    85  G85        -0.3307
   1751  C3'       19.5360  -26.8450   -0.8250 C.3    85  G85         0.1860
   1752  O3'       20.7300  -27.3630   -1.3980 O.3    85  G85        -0.3112
   1753  C2'       18.5910  -27.9570   -0.4020 C.3    85  G85         0.2309
   1754  O2'       19.2430  -28.9820    0.3300 O.3    85  G85        -0.2156
   1755  C1'       17.6520  -27.1830    0.5190 C.3    85  G85         0.2408
   1756   N9       16.4880  -26.6150   -0.1700 N.ar   85  G85        -0.2693
   1757   C8       16.2600  -25.2960   -0.5110 C.ar   85  G85         0.1817
   1758   N7       15.1080  -25.1080   -1.1040 N.ar   85  G85        -0.2173
   1759   C5       14.5420  -26.3770   -1.1680 C.ar   85  G85         0.1748
   1760   C6       13.2930  -26.8080   -1.7120 C.ar   85  G85         0.3023
   1761   O6       12.4120  -26.1290   -2.2680 O.2    85  G85        -0.2633
   1762   N.1      13.1250  -28.1840   -1.5670 N.ar   85  G85        -0.1709
   1763   C.2      14.0430  -29.0390   -0.9880 C.ar   85  G85         0.2606
   1764   N.2      13.7100  -30.3380   -0.9490 N.pl3  85  G85        -0.0859
   1765   N.3      15.2020  -28.6500   -0.4840 N.ar   85  G85        -0.1918
   1766   C4       15.3840  -27.3190   -0.6030 C.ar   85  G85         0.1723
   1767    P.3     20.8350  -27.5290   -2.9990 P.3    86  A86         0.2141
   1768  OP1       21.9420  -26.6460   -3.4350 O.3    86  A86        -0.4373
   1769  OP2       19.4900  -27.3880   -3.6340 O.2    86  A86        -0.5172
   1770  O5'       21.3010  -29.0410   -3.1710 O.3    86  A86        -0.3114
   1771  C5'       22.6780  -29.4030   -3.1680 C.3    86  A86         0.1812
   1772  C4'       22.8250  -30.8390   -3.6080 C.3    86  A86         0.1773
   1773  O4'       22.1800  -31.7020   -2.6270 O.3    86  A86        -0.3307
   1774  C3'       22.1310  -31.1700   -4.9220 C.3    86  A86         0.1860
   1775  O3'       22.9560  -30.9110   -6.0480 O.3    86  A86        -0.3112
   1776  C2'       21.8340  -32.6490   -4.7610 C.3    86  A86         0.2309
   1777  O2'       22.9880  -33.4360   -4.9910 O.3    86  A86        -0.2156
   1778  C1'       21.4170  -32.6970   -3.2900 C.3    86  A86         0.2408
   1779   N9       20.0010  -32.3780   -3.0950 N.ar   86  A86        -0.2693
   1780   C8       19.4650  -31.1690   -2.7090 C.ar   86  A86         0.1816
   1781   N7       18.1610  -31.1770   -2.6020 N.ar   86  A86        -0.2193
   1782   C5       17.8060  -32.4780   -2.9390 C.ar   86  A86         0.1518
   1783   C6       16.5610  -33.1310   -3.0100 C.ar   86  A86         0.1919
   1784   N6       15.4040  -32.5360   -2.7260 N.pl3  86  A86        -0.1054
   1785   N.1      16.5440  -34.4280   -3.3830 N.ar   86  A86        -0.2040
   1786   C.2      17.7000  -35.0200   -3.6670 C.ar   86  A86         0.2016
   1787   N.3      18.9420  -34.5170   -3.6370 N.ar   86  A86        -0.2048
   1788   C4       18.9260  -33.2250   -3.2550 C.ar   86  A86         0.1692
   1789    P.3     22.2890  -30.3720   -7.4100 P.3    87  A87         0.2141
   1790  OP1       23.3780  -30.0460   -8.3630 O.2    87  A87        -0.5172
   1791  OP2       21.2850  -29.3300   -7.0610 O.3    87  A87        -0.4373
   1792  O5'       21.5190  -31.6390   -7.9930 O.3    87  A87        -0.3114
   1793  C5'       22.2230  -32.8140   -8.3920 C.3    87  A87         0.1812
   1794  C4'       21.2560  -33.9610   -8.5510 C.3    87  A87         0.1773
   1795  O4'       20.6160  -34.2070   -7.2650 O.3    87  A87        -0.3307
   1796  C3'       20.0940  -33.6890   -9.4930 C.3    87  A87         0.1860
   1797  O3'       20.4110  -33.9860  -10.8420 O.3    87  A87        -0.3112
   1798  C2'       19.0260  -34.6190   -8.9460 C.3    87  A87         0.2309
   1799  O2'       19.2810  -35.9730   -9.2800 O.3    87  A87        -0.2156
   1800  C1'       19.2160  -34.4040   -7.4460 C.3    87  A87         0.2408
   1801   N9       18.5110  -33.2270   -6.9310 N.ar   87  A87        -0.2693
   1802   C8       19.0650  -32.0290   -6.5550 C.ar   87  A87         0.1816
   1803   N7       18.1900  -31.1510   -6.1290 N.ar   87  A87        -0.2193
   1804   C5       16.9740  -31.8140   -6.2260 C.ar   87  A87         0.1518
   1805   C6       15.6580  -31.4220   -5.9200 C.ar   87  A87         0.1919
   1806   N6       15.3410  -30.2210   -5.4280 N.pl3  87  A87        -0.1054
   1807   N.1      14.6700  -32.3170   -6.1400 N.ar   87  A87        -0.2040
   1808   C.2      14.9930  -33.5190   -6.6360 C.ar   87  A87         0.2016
   1809   N.3      16.1930  -34.0050   -6.9620 N.ar   87  A87        -0.2048
   1810   C4       17.1540  -33.0930   -6.7260 C.ar   87  A87         0.1692
   1811    P.3     19.7320  -33.1270  -12.0170 P.3    88  G88         0.2141
   1812  OP1       20.0690  -33.7440  -13.3310 O.2    88  G88        -0.5172
   1813  OP2       20.0770  -31.7040  -11.7560 O.3    88  G88        -0.4373
   1814  O5'       18.1710  -33.2940  -11.7630 O.3    88  G88        -0.3114
   1815  C5'       17.5900  -34.5820  -11.7230 C.3    88  G88         0.1812
   1816  C4'       16.1060  -34.4730  -11.5610 C.3    88  G88         0.1773
   1817  O4'       15.7620  -34.0320  -10.2240 O.3    88  G88        -0.3307
   1818  C3'       15.4310  -33.4480  -12.4470 C.3    88  G88         0.1860
   1819  O3'       15.3100  -33.9400  -13.7700 O.3    88  G88        -0.3112
   1820  C2'       14.0930  -33.2910  -11.7410 C.3    88  G88         0.2309
   1821  O2'       13.1910  -34.3480  -11.9880 O.3    88  G88        -0.2156
   1822  C1'       14.5340  -33.3180  -10.2740 C.3    88  G88         0.2408
   1823   N9       14.7120  -31.9590   -9.7790 N.ar   88  G88        -0.2693
   1824   C8       15.8760  -31.2780   -9.5230 C.ar   88  G88         0.1817
   1825   N7       15.6720  -30.0320   -9.1830 N.ar   88  G88        -0.2173
   1826   C5       14.2910  -29.8990   -9.1960 C.ar   88  G88         0.1748
   1827   C6       13.4740  -28.7760   -8.9300 C.ar   88  G88         0.3023
   1828   O6       13.8210  -27.6180   -8.6230 O.2    88  G88        -0.2633
   1829   N.1      12.1210  -29.0930   -9.0630 N.ar   88  G88        -0.1709
   1830   C.2      11.6320  -30.3270   -9.4190 C.ar   88  G88         0.2606
   1831   N.2      10.3060  -30.4530   -9.5270 N.pl3  88  G88        -0.0859
   1832   N.3      12.3860  -31.3660   -9.6610 N.ar   88  G88        -0.1918
   1833   C4       13.6910  -31.0850   -9.5370 C.ar   88  G88         0.1723
   1834    P.3     15.0430  -32.9230  -14.9760 P.3    89  U89         0.2141
   1835  OP1       15.0290  -33.7540  -16.2120 O.2    89  U89        -0.5172
   1836  OP2       15.9690  -31.7610  -14.8740 O.3    89  U89        -0.4373
   1837  O5'       13.5680  -32.4110  -14.6910 O.3    89  U89        -0.3114
   1838  C5'       12.4630  -33.2870  -14.8320 C.3    89  U89         0.1812
   1839  C4'       11.1870  -32.4980  -14.8660 C.3    89  U89         0.1773
   1840  O4'       10.9440  -31.9230  -13.5610 O.3    89  U89        -0.3307
   1841  C3'       11.2010  -31.3010  -15.7980 C.3    89  U89         0.1860
   1842  O3'       10.9220  -31.7070  -17.1300 O.3    89  U89        -0.3112
   1843  C2'       10.0970  -30.4360  -15.2100 C.3    89  U89         0.2309
   1844  O2'        8.8060  -30.8590  -15.6070 O.3    89  U89        -0.2156
   1845  C1'       10.2920  -30.6750  -13.7090 C.3    89  U89         0.2420
   1846   N.1      11.1280  -29.6440  -13.0720 N.ar   89  U89        -0.2534
   1847   C.2      10.5380  -28.4380  -12.7410 C.ar   89  U89         0.3546
   1848   O.2       9.3470  -28.2230  -12.9030 O.2    89  U89        -0.2443
   1849   N.3      11.3940  -27.4930  -12.2080 N.ar   89  U89        -0.1530
   1850   C4       12.7540  -27.6430  -11.9630 C.ar   89  U89         0.2846
   1851   O4       13.4210  -26.6900  -11.5180 O.2    89  U89        -0.2650
   1852   C5       13.2700  -28.9330  -12.3050 C.ar   89  U89         0.0814
   1853   C6       12.4630  -29.8610  -12.8320 C.ar   89  U89         0.0870
   1854    P.3     11.4840  -30.8420  -18.3640 P.3    90  C90         0.2141
   1855  OP1       11.0900  -31.5760  -19.5960 O.2    90  C90        -0.5172
   1856  OP2       12.9130  -30.4880  -18.1430 O.3    90  C90        -0.4373
   1857  O5'       10.6480  -29.4920  -18.2910 O.3    90  C90        -0.3114
   1858  C5'        9.3220  -29.4260  -18.7970 C.3    90  C90         0.1812
   1859  C4'        8.7520  -28.0570  -18.5490 C.3    90  C90         0.1773
   1860  O4'        8.7560  -27.8130  -17.1120 O.3    90  C90        -0.3307
   1861  C3'        9.5870  -26.9050  -19.0730 C.3    90  C90         0.1860
   1862  O3'        9.4290  -26.6490  -20.4500 O.3    90  C90        -0.3112
   1863  C2'        9.0880  -25.7590  -18.2150 C.3    90  C90         0.2309
   1864  O2'        7.7910  -25.3350  -18.5670 O.3    90  C90        -0.2156
   1865  C1'        9.0440  -26.4430  -16.8560 C.3    90  C90         0.2420
   1866   N.1      10.3640  -26.3700  -16.2110 N.ar   90  C90        -0.2535
   1867   C.2      10.6300  -25.2890  -15.3970 C.ar   90  C90         0.3532
   1868   O.2       9.7420  -24.4350  -15.2380 O.2    90  C90        -0.2443
   1869   N.3      11.8420  -25.1860  -14.8090 N.ar   90  C90        -0.1739
   1870   C4       12.7740  -26.1110  -15.0350 C.ar   90  C90         0.1759
   1871   N.4      13.9660  -25.9400  -14.4710 N.pl3  90  C90        -0.1070
   1872   C5       12.5270  -27.2410  -15.8590 C.ar   90  C90         0.0566
   1873   C6       11.3190  -27.3330  -16.4190 C.ar   90  C90         0.0850
   1874    P.3     10.5370  -25.7720  -21.2050 P.3    91  G91         0.2141
   1875  OP1       10.1270  -25.6720  -22.6260 O.2    91  G91        -0.5172
   1876  OP2       11.8880  -26.2830  -20.8520 O.3    91  G91        -0.4373
   1877  O5'       10.4280  -24.3360  -20.5400 O.3    91  G91        -0.3114
   1878  C5'        9.2650  -23.5410  -20.7020 C.3    91  G91         0.1812
   1879  C4'        9.5000  -22.1820  -20.1050 C.3    91  G91         0.1773
   1880  O4'        9.7880  -22.3290  -18.6880 O.3    91  G91        -0.3307
   1881  C3'       10.7340  -21.4880  -20.6470 C.3    91  G91         0.1860
   1882  O3'       10.4790  -20.8420  -21.8840 O.3    91  G91        -0.3112
   1883  C2'       11.0820  -20.5270  -19.5240 C.3    91  G91         0.2309
   1884  O2'       10.2660  -19.3760  -19.5210 O.3    91  G91        -0.2156
   1885  C1'       10.7800  -21.3900  -18.2980 C.3    91  G91         0.2408
   1886   N9       11.9520  -22.1090  -17.7820 N.ar   91  G91        -0.2693
   1887   C8       12.2970  -23.4350  -17.9740 C.ar   91  G91         0.1817
   1888   N7       13.4150  -23.7670  -17.3760 N.ar   91  G91        -0.2173
   1889   C5       13.8300  -22.5970  -16.7480 C.ar   91  G91         0.1748
   1890   C6       14.9610  -22.3380  -15.9150 C.ar   91  G91         0.3023
   1891   O6       15.8380  -23.1300  -15.5280 O.2    91  G91        -0.2633
   1892   N.1      14.9980  -21.0070  -15.5040 N.ar   91  G91        -0.1709
   1893   C.2      14.0520  -20.0550  -15.8190 C.ar   91  G91         0.2606
   1894   N.2      14.2410  -18.8190  -15.3340 N.pl3  91  G91        -0.0859
   1895   N.3      12.9910  -20.2920  -16.5610 N.ar   91  G91        -0.1918
   1896   C4       12.9430  -21.5670  -16.9940 C.ar   91  G91         0.1723
   1897    P.3     11.6550  -20.7430  -22.9680 P.3    92  C92         0.2141
   1898  OP1       11.0190  -20.4970  -24.2910 O.2    92  C92        -0.5172
   1899  OP2       12.5370  -21.9390  -22.7890 O.3    92  C92        -0.4373
   1900  O5'       12.4570  -19.4380  -22.5090 O.3    92  C92        -0.3114
   1901  C5'       11.8390  -18.1500  -22.5290 C.3    92  C92         0.1813
   1902  C4'       12.5850  -17.1860  -21.6310 C.3    92  C92         0.1801
   1903  O4'       12.7070  -17.7750  -20.3080 O.3    92  C92        -0.3306
   1904  C3'       14.0250  -16.8580  -21.9940 C.3    92  C92         0.2161
   1905  O3'       14.2290  -15.9820  -23.1150 O.3    92  C92        -0.2175
   1906  C2'       14.5790  -16.3580  -20.6630 C.3    92  C92         0.2338
   1907  O2'       14.1840  -15.0450  -20.3320 O.3    92  C92        -0.2155
   1908  C1'       13.8960  -17.3100  -19.6830 C.3    92  C92         0.2421
   1909   N.1      14.7390  -18.4560  -19.3010 N.ar   92  C92        -0.2535
   1910   C.2      15.7450  -18.2510  -18.3540 C.ar   92  C92         0.3532
   1911   O.2      15.8670  -17.1260  -17.8500 O.2    92  C92        -0.2443
   1912   N.3      16.5500  -19.2830  -18.0070 N.ar   92  C92        -0.1739
   1913   C4       16.3600  -20.4860  -18.5520 C.ar   92  C92         0.1759
   1914   N.4      17.1640  -21.4650  -18.1860 N.pl3  92  C92        -0.1070
   1915   C5       15.3320  -20.7300  -19.5050 C.ar   92  C92         0.0566
   1916   C6       14.5550  -19.6960  -19.8540 C.ar   92  C92         0.0850
@<TRIPOS>BOND
     1  1898  1897    2
     2  1905  1904    1
     3  1897  1899    1
     4  1897  1900    1
     5  1897  1882    1
     6  1875  1874    2
     7  1901  1900    1
     8  1901  1902    1
     9  1904  1902    1
    10  1904  1906    1
    11  1882  1881    1
    12  1902  1903    1
    13  1874  1876    1
    14  1874  1877    1
    15  1874  1862    1
    16  1878  1877    1
    17  1878  1879    1
    18  1906  1907    1
    19  1906  1908    1
    20  1881  1879    1
    21  1881  1883    1
    22  1862  1861    1
    23  1903  1908    1
    24  1879  1880    1
    25   956   955    2
    26  1916  1915   ar
    27  1916  1909   ar
    28  1908  1909    1
    29  1855  1854    2
    30  1883  1884    1
    31  1883  1885    1
    32  1915  1913   ar
    33   955   957   ar
    34   955   954   ar
    35  1909  1910   ar
    36   957   958   ar
    37  1861  1859    1
    38  1861  1863    1
    39   954   952   ar
    40  1858  1859    1
    41  1858  1857    1
    42  1880  1885    1
    43  1864  1863    1
    44  1913  1914    1
    45  1913  1912   ar
    46  1859  1860    1
    47   958   951   ar
    48  1854  1857    1
    49  1854  1856    1
    50  1854  1842    1
    51  1910  1912   ar
    52  1910  1911    2
    53  1885  1886    1
    54  1863  1865    1
    55   952   951   ar
    56   952   953    2
    57  1887  1886   ar
    58  1887  1888   ar
    59   951   950    1
    60  1886  1896   ar
    61   976   975    2
    62  1888  1889   ar
    63   945   950    1
    64   945   944    1
    65   950   948    1
    66  1842  1841    1
    67  1860  1865    1
    68  1896  1889   ar
    69  1896  1895   ar
    70  1865  1866    1
    71   975   974   ar
    72   975   977   ar
    73  1889  1890   ar
    74   974   972   ar
    75  1895  1893   ar
    76   999   998    1
    77  1873  1866   ar
    78  1873  1872   ar
    79  1835  1834    2
    80  1866  1867   ar
    81   997   998   ar
    82   997   995   ar
    83   977   978   ar
    84   996   995    2
    85   942   943    1
    86  1890  1891    2
    87  1890  1892   ar
    88   943   944    1
    89  1872  1870   ar
    90   998  1000   ar
    91   972   973    2
    92   972   971   ar
    93   944   946    1
    94  1893  1892   ar
    95  1893  1894    1
    96  1841  1843    1
    97  1841  1839    1
    98   995   994   ar
    99   948   949    1
   100   948   946    1
   101  1844  1843    1
   102  1867  1868    2
   103  1867  1869   ar
   104   978   971   ar
   105  1843  1845    1
   106   971   970    1
   107  1870  1869   ar
   108  1870  1871    1
   109   946   947    1
   110  1000  1001   ar
   111  1834  1836    1
   112  1834  1837    1
   113  1834  1819    1
   114  1042  1041    1
   115  1839  1838    1
   116  1839  1840    1
   117  1838  1837    1
   118   994  1001   ar
   119   994   993   ar
   120  1001   991   ar
   121   970   965    1
   122   970   968    1
   123   488   487    2
   124  1016  1015    2
   125   993   992   ar
   126  1041  1040   ar
   127  1041  1043   ar
   128   965   964    1
   129   489   487   ar
   130   489   490   ar
   131   487   486   ar
   132  1819  1818    1
   133  1845  1840    1
   134  1845  1846    1
   135  1040  1038   ar
   136   947   959    1
   137   991   992   ar
   138   991   990    1
   139  1017  1015   ar
   140  1017  1018   ar
   141  1043  1044   ar
   142   490   483   ar
   143   486   484   ar
   144  1015  1014   ar
   145  1812  1811    2
   146   453   451    2
   147   459   458    1
   148   968   969    1
   149   968   966    1
   150   961   959    2
   151  1846  1853   ar
   152  1846  1847   ar
   153   483   484   ar
   154   483   482    1
   155   990   985    1
   156   990   988    1
   157   389   388    2
   158   484   485    2
   159  1848  1847    2
   160  1019  1018    1
   161   429   428    2
   162  1853  1852   ar
   163  1847  1849   ar
   164  1038  1039    2
   165  1038  1037   ar
   166  1018  1020   ar
   167   482   477    1
   168   482   480    1
   169   477   476    1
   170  1044  1037   ar
   171  1044  1034   ar
   172   959   962    1
   173   959   960    1
   174   409   408    2
   175   962   963    1
   176   472   471    1
   177   964   966    1
   178   964   963    1
   179   985   984    1
   180  1818  1820    1
   181  1818  1816    1
   182  1852  1850   ar
   183  1014  1013    1
   184  1014  1021   ar
   185  1849  1850   ar
   186  1037  1036   ar
   187   471   473    1
   188   471   474    1
   189   458   460    1
   190   458   456    1
   191   430   428    1
   192   966   967    1
   193  1013  1008    1
   194  1013  1011    1
   195   989   988    1
   196  1059  1058    2
   197  1811  1814    1
   198  1811  1813    1
   199  1811  1797    1
   200   410   408    1
   201  1821  1820    1
   202   988   986    1
   203  1850  1851    2
   204   451   436    1
   205   451   452    1
   206   451   454    1
   207  1033  1034    1
   208  1033  1028    1
   209  1033  1031    1
   210   366   365    2
   211   436   435    1
   212  1034  1035   ar
   213   460   461    1
   214   460   462    1
   215   428   431    1
   216   428   416    1
   217  1032  1031    1
   218  1814  1815    1
   219  1820  1822    1
   220  1815  1816    1
   221  1055  1054    1
   222  1020  1021   ar
   223   388   390    1
   224   388   373    1
   225   388   391    1
   226   408   396    1
   227   408   411    1
   228  1816  1817    1
   229  1012  1011    1
   230  1056  1051    1
   231  1056  1057    1
   232  1056  1054    1
   233   431   432    1
   234  1008  1007    1
   235   481   480    1
   236   480   478    1
   237  1058  1057   ar
   238  1058  1060   ar
   239  1028  1027    1
   240  1051  1050    1
   241   476   475    1
   242   476   478    1
   243  1036  1035   ar
   244   396   395    1
   245   469   470   ar
   246   469   467   ar
   247  1031  1029    1
   248  1011  1009    1
   249   432   433    1
   250   984   986    1
   251   984   983    1
   252   470   463   ar
   253   373   372    1
   254   468   467    1
   255   392   391    1
   256   392   393    1
   257  1057  1064   ar
   258  1060  1061   ar
   259  1797  1796    1
   260   467   466   ar
   261   475   474    1
   262   508   507    2
   263   454   455    1
   264   967   979    1
   265   369   368    1
   266   369   370    1
   267   456   455    1
   268   456   457    1
   269  1054  1052    1
   270   986   987    1
   271   435   433    1
   272   435   437    1
   273   463   462    1
   274   463   464   ar
   275   416   415    1
   276  1050  1052    1
   277  1050  1049    1
   278   365   368    1
   279   365   351    1
   280   365   367    1
   281   462   457    1
   282   478   479    1
   283   982   983    1
   284   982   979    1
   285   505   506   ar
   286   505   504   ar
   287   466   464   ar
   288  1822  1817    1
   289  1822  1823    1
   290   507   506   ar
   291   507   509   ar
   292   411   412    1
   293   464   465    2
   294   981   979    2
   295  1027  1029    1
   296  1027  1026    1
   297   433   434    1
   298   395   393    1
   299   395   397    1
   300  1071  1076    1
   301  1071  1070    1
   302  1064  1063   ar
   303   393   394    1
   304  1007  1009    1
   305  1007  1006    1
   306   506   513   ar
   307  1061  1062    2
   308  1061  1063   ar
   309   351   350    1
   310   504   503   ar
   311   370   372    1
   312   370   371    1
   313   372   374    1
   314   979   980    1
   315   412   413    1
   316  1029  1030    1
   317  1823  1833   ar
   318  1823  1824   ar
   319  1009  1010    1
   320   509   510   ar
   321  1076  1077    1
   322  1076  1074    1
   323  1052  1053    1
   324  1049  1048    1
   325  1832  1833   ar
   326  1832  1830   ar
   327  1079  1078    2
   328   415   413    1
   329   415   417    1
   330  1833  1826   ar
   331  1831  1830    1
   332  1824  1825   ar
   333   987  1002    1
   334  1796  1798    1
   335  1796  1794    1
   336  1075  1074    1
   337  1070  1069    1
   338  1070  1072    1
   339   513   503   ar
   340   513   512   ar
   341  1830  1829   ar
   342   437   438    1
   343   437   439    1
   344   503   502    1
   345  1053  1065    1
   346  1799  1798    1
   347   442   441   ar
   348   442   443   ar
   349   441   440   ar
   350  1826  1825   ar
   351  1826  1827   ar
   352  1077  1078   ar
   353  1077  1084   ar
   354   479   491    1
   355  1026  1025    1
   356   510   512   ar
   357   510   511    1
   358  1078  1080   ar
   359  1069  1068    1
   360  1006  1005    1
   361  1829  1827   ar
   362  1030  1045    1
   363   434   439    1
   364  1005  1002    1
   365   413   414    1
   366  1798  1800    1
   367  1827  1828    2
   368   497   502    1
   369   497   496    1
   370   344   343    2
   371   397   398    1
   372   397   399    1
   373  1074  1072    1
   374   502   500    1
   375  1048  1045    1
   376   375   374    1
   377  1084  1083   ar
   378  1010  1022    1
   379  1025  1022    1
   380   394   399    1
   381   440   439    1
   382   440   450   ar
   383   443   444   ar
   384   443   450   ar
   385   445   444    2
   386   353   352    1
   387   350   348    1
   388   350   352    1
   389   374   376    1
   390  1080  1081   ar
   391   347   348    1
   392   347   346    1
   393  1004  1002    2
   394  1794  1793    1
   395  1794  1795    1
   396   371   376    1
   397   494   491    1
   398   494   495    1
   399  1002  1003    1
   400   348   349    1
   401   444   446   ar
   402  1793  1792    1
   403  1790  1789    2
   404   417   418    1
   405   417   419    1
   406   450   449   ar
   407   426   427   ar
   408   426   424   ar
   409  1072  1073    1
   410  1068  1065    1
   411   427   420   ar
   412  1083  1081   ar
   413  1081  1082    1
   414  1792  1789    1
   415   491   493    2
   416   491   492    1
   417  1065  1066    2
   418  1065  1067    1
   419   352   354    1
   420  1045  1046    2
   421  1045  1047    1
   422   407   406   ar
   423   407   400   ar
   424   399   400    1
   425   446   447   ar
   426   531   530    1
   427   414   419    1
   428  1022  1024    2
   429  1022  1023    1
   430   449   447   ar
   431   346   343    1
   432   425   424    1
   433   376   377    1
   434   495   496    1
   435   424   423   ar
   436   496   498    1
   437  1073  1085    1
   438   343   345    1
   439   343   329    1
   440   420   419    1
   441   420   421   ar
   442   447   448    1
   443  1800  1795    1
   444  1800  1801    1
   445   406   404   ar
   446  1789  1791    1
   447  1789  1775    1
   448  1091  1096    1
   449  1091  1090    1
   450   400   401   ar
   451   500   501    1
   452   500   498    1
   453   349   354    1
   454   530   532   ar
   455   530   529   ar
   456   423   421   ar
   457  1809  1810   ar
   458  1809  1808   ar
   459  1801  1810   ar
   460  1801  1802   ar
   461   421   422    2
   462   378   377   ar
   463   378   379   ar
   464   377   387   ar
   465  1089  1090    1
   466  1089  1088    1
   467  1810  1804   ar
   468  1096  1097    1
   469  1096  1094    1
   470   354   355    1
   471   532   533   ar
   472   529   527   ar
   473  1090  1092    1
   474  1808  1807   ar
   475   498   499    1
   476   329   328    1
   477  1802  1803   ar
   478  1097  1098   ar
   479  1097  1106   ar
   480   404   405    2
   481   404   403   ar
   482  1804  1803   ar
   483  1804  1805   ar
   484  1098  1099   ar
   485   401   403   ar
   486   401   402    2
   487  1807  1805   ar
   488  1106  1105   ar
   489  1106  1100   ar
   490  1775  1774    1
   491  1085  1088    1
   492  1085  1086    2
   493  1085  1087    1
   494  1105  1104   ar
   495   379   380   ar
   496  1095  1094    1
   497  1805  1806    1
   498  1099  1100   ar
   499   533   526   ar
   500   527   526   ar
   501   527   528    2
   502  1100  1101   ar
   503   387   386   ar
   504   387   380   ar
   505  1104  1103   ar
   506   331   330    1
   507   551   550    2
   508   355   356   ar
   509   355   364   ar
   510  1094  1092    1
   511  1101  1103   ar
   512  1101  1102    1
   513   526   525    1
   514   386   384   ar
   515   499   514    1
   516   380   381   ar
   517   328   330    1
   518   328   326    1
   519  1092  1093    1
   520   552   550   ar
   521   552   553   ar
   522   356   357   ar
   523   550   549   ar
   524   330   332    1
   525  1777  1776    1
   526  1774  1776    1
   527  1774  1772    1
   528   554   553    1
   529   363   364   ar
   530   363   362   ar
   531   364   358   ar
   532  1776  1778    1
   533   520   525    1
   534   520   519    1
   535   553   555   ar
   536   525   523    1
   537  1093  1107    1
   538   516   514    2
   539   384   385    1
   540   384   383   ar
   541   549   548   ar
   542   549   556   ar
   543   326   325    1
   544   326   327    1
   545   357   358   ar
   546   381   383   ar
   547   381   382    2
   548   514   517    1
   549   514   515    1
   550   341   340   ar
   551   341   342   ar
   552   340   339   ar
   553   358   359   ar
   554   517   518    1
   555   362   361   ar
   556   548   547   ar
   557   555   556   ar
   558   325   324    1
   559   571   570    2
   560   556   546   ar
   561  1786  1787   ar
   562  1786  1785   ar
   563  1787  1788   ar
   564  1769  1767    2
   565   324   321    1
   566  1772  1771    1
   567  1772  1773    1
   568   332   327    1
   569   332   333    1
   570   572   570   ar
   571   572   573   ar
   572  1768  1767    1
   573  1785  1783   ar
   574   574   573    2
   575   518   519    1
   576  1778  1779    1
   577  1778  1773    1
   578   519   521    1
   579  1788  1779   ar
   580  1788  1782   ar
   581   339   337   ar
   582  1770  1771    1
   583  1770  1767    1
   584   570   569   ar
   585   523   524    1
   586   523   521    1
   587   342   333   ar
   588   342   336   ar
   589   547   546   ar
   590  1779  1780   ar
   591   361   359   ar
   592   359   360    1
   593  1783  1782   ar
   594  1783  1784    1
   595  1767  1752    1
   596  1107  1108    2
   597  1107  1109    1
   598  1107  1110    1
   599  1782  1781   ar
   600   546   545    1
   601  1113  1118    1
   602  1113  1112    1
   603   573   575   ar
   604   333   334   ar
   605  1780  1781   ar
   606   322   321    2
   607   591   590    2
   608  1125  1126   ar
   609  1125  1123   ar
   610   521   522    1
   611  1124  1123    1
   612  1126  1119   ar
   613   321   323    1
   614   321   306    1
   615  1123  1122   ar
   616  1111  1110    1
   617  1111  1112    1
   618   337   336   ar
   619   337   338    1
   620  1119  1118    1
   621  1119  1120   ar
   622   336   335   ar
   623  1761  1760    2
   624  1122  1120   ar
   625  1118  1116    1
   626  1120  1121    2
   627   569   568    1
   628   569   576   ar
   629   545   540    1
   630   545   543    1
   631  1112  1114    1
   632   334   335   ar
   633   575   576   ar
   634  1659  1658    2
   635   592   590   ar
   636   592   593   ar
   637   590   589   ar
   638   568   563    1
   639   568   566    1
   640  1760  1762   ar
   641  1760  1759   ar
   642  1679  1678    2
   643  1762  1763   ar
   644   563   562    1
   645  1752  1751    1
   646   540   539    1
   647  1746  1744    2
   648   306   305    1
   649  1759  1758   ar
   650  1759  1766   ar
   651   616   617   ar
   652   616   615   ar
   653   522   534    1
   654  1680  1678    1
   655  1758  1757   ar
   656   543   544    1
   657   543   541    1
   658   567   566    1
   659  1763  1764    1
   660  1763  1765   ar
   661   594   593    1
   662   617   618   ar
   663   593   595   ar
   664   589   588    1
   665   589   596   ar
   666   588   583    1
   667   588   586    1
   668  1745  1744    1
   669  1751  1753    1
   670  1751  1749    1
   671  1116  1117    1
   672  1116  1114    1
   673   566   564    1
   674  1703  1701    2
   675  1678  1666    1
   676  1678  1681    1
   677  1114  1115    1
   678  1766  1765   ar
   679  1766  1756   ar
   680   615   613   ar
   681  1658  1660    1
   682  1658  1661    1
   683  1658  1646    1
   684  1757  1756   ar
   685  1744  1747    1
   686  1744  1732    1
   687  1702  1701    1
   688  1753  1754    1
   689  1753  1755    1
   690   583   582    1
   691   587   586    1
   692  1747  1748    1
   693   536   534    2
   694   308   307    1
   695  1756  1755    1
   696   618   609   ar
   697   618   612   ar
   698   562   564    1
   699   562   561    1
   700  1726  1724    2
   701   608   603    1
   702   608   609    1
   703   608   606    1
   704  1639  1638    2
   705   596   595   ar
   706   305   307    1
   707   305   303    1
   708   534   537    1
   709   534   535    1
   710   539   541    1
   711   539   538    1
   712  1666  1665    1
   713   537   538    1
   714   586   584    1
   715  1661  1662    1
   716   607   606    1
   717  1701  1686    1
   718  1701  1704    1
   719   307   309    1
   720  1662  1663    1
   721   541   542    1
   722   603   602    1
   723  1741  1740    1
   724   613   612   ar
   725   613   614    1
   726   609   610   ar
   727  1646  1645    1
   728  1115  1127    1
   729  1748  1749    1
   730  1725  1724    1
   731  1681  1682    1
   732   564   565    1
   733  1749  1750    1
   734  1755  1750    1
   735   612   611   ar
   736   561   560    1
   737   582   584    1
   738   582   581    1
   739  1144  1143    2
   740  1724  1727    1
   741  1724  1709    1
   742   606   604    1
   743  1686  1685    1
   744  1682  1683    1
   745  1740  1742   ar
   746  1740  1739   ar
   747  1742  1743   ar
   748  1732  1731    1
   749  1665  1663    1
   750  1665  1667    1
   751   299   298    2
   752   560   557    1
   753   610   611   ar
   754  1141  1142   ar
   755  1141  1140   ar
   756   303   302    1
   757   303   304    1
   758  1663  1664    1
   759   602   604    1
   760   602   601    1
   761  1727  1728    1
   762  1143  1142   ar
   763  1143  1145   ar
   764  1642  1641    1
   765  1642  1643    1
   766   584   585    1
   767  1704  1705    1
   768  1638  1641    1
   769  1638  1640    1
   770  1638  1623    1
   771   542   557    1
   772  1142  1149   ar
   773   565   577    1
   774  1140  1139   ar
   775  1645  1643    1
   776  1645  1647    1
   777  1731  1733    1
   778  1731  1729    1
   779   633   632    2
   780  1685  1683    1
   781  1685  1687    1
   782   302   301    1
   783  1739  1737   ar
   784   581   580    1
   785  1145  1146   ar
   786   309   310    1
   787   309   304    1
   788  1743  1736   ar
   789   318   317    1
   790   301   298    1
   791  1643  1644    1
   792   319   317   ar
   793   319   320   ar
   794  1127  1129    2
   795  1127  1130    1
   796  1127  1128    1
   797   625   630    1
   798   625   624    1
   799   604   605    1
   800  1149  1139   ar
   801  1149  1148   ar
   802  1683  1684    1
   803  1133  1138    1
   804  1133  1132    1
   805   317   316   ar
   806  1139  1138    1
   807   601   600    1
   808   298   300    1
   809   298   286    1
   810   630   631    1
   811   630   628    1
   812   310   320   ar
   813   310   311   ar
   814   557   559    2
   815   557   558    1
   816   580   577    1
   817  1728  1729    1
   818  1146  1148   ar
   819  1146  1147    1
   820  1130  1131    1
   821  1709  1708    1
   822  1705  1706    1
   823   320   313   ar
   824   585   597    1
   825  1623  1622    1
   826   632   631   ar
   827   632   634   ar
   828  1737  1736   ar
   829  1737  1738    2
   830  1736  1735    1
   831  1733  1735    1
   832  1733  1734    1
   833   629   628    1
   834  1648  1647    1
   835  1667  1668    1
   836  1667  1669    1
   837   316   314   ar
   838  1131  1132    1
   839  1715  1714   ar
   840  1715  1716   ar
   841  1664  1669    1
   842   311   312   ar
   843   631   638   ar
   844  1138  1136    1
   845  1718  1717    2
   846  1708  1706    1
   847  1708  1710    1
   848   313   314   ar
   849   313   312   ar
   850  1729  1730    1
   851  1691  1692   ar
   852  1691  1690   ar
   853  1647  1649    1
   854   605   619    1
   855   577   579    2
   856   577   578    1
   857   624   623    1
   858   624   626    1
   859   634   635   ar
   860  1692  1693   ar
   861   314   315    2
   862  1714  1713   ar
   863  1687  1688    1
   864  1687  1689    1
   865   600   597    1
   866  1132  1134    1
   867   628   626    1
   868  1684  1689    1
   869  1735  1730    1
   870   623   622    1
   871  1706  1707    1
   872  1616  1615    2
   873  1716  1717   ar
   874  1716  1723   ar
   875  1677  1676   ar
   876  1677  1670   ar
   877  1717  1719   ar
   878   638   637   ar
   879  1644  1649    1
   880  1669  1670    1
   881   635   637   ar
   882   635   636    1
   883   597   599    2
   884   597   598    1
   885   286   285    1
   886  1676  1674   ar
   887  1690  1689    1
   888  1690  1700   ar
   889  1622  1620    1
   890  1622  1624    1
   891  1167  1166    1
   892  1670  1671   ar
   893  1713  1723   ar
   894  1713  1712    1
   895  1710  1712    1
   896  1710  1711    1
   897  1693  1700   ar
   898  1693  1694   ar
   899  1649  1650    1
   900   626   627    1
   901  1625  1624    1
   902   622   619    1
   903  1723  1722   ar
   904  1707  1712    1
   905  1695  1694    2
   906  1136  1134    1
   907  1136  1137    1
   908  1619  1620    1
   909  1619  1618    1
   910  1719  1720   ar
   911  1134  1135    1
   912   619   620    2
   913   619   621    1
   914  1620  1621    1
   915  1657  1650   ar
   916  1657  1656   ar
   917  1700  1699   ar
   918  1694  1696   ar
   919  1166  1168   ar
   920  1166  1165   ar
   921  1624  1626    1
   922  1674  1675    1
   923  1674  1673   ar
   924  1615  1618    1
   925  1615  1617    1
   926  1615  1603    1
   927  1650  1651   ar
   928   645   650    1
   929   645   644    1
   930   285   287    1
   931   285   283    1
   932   627   639    1
   933  1671  1673   ar
   934  1671  1672    2
   935  1168  1169   ar
   936  1165  1163   ar
   937  1722  1720   ar
   938  1720  1721    1
   939  1656  1654   ar
   940   287   288    1
   941   287   289    1
   942   650   651    1
   943   650   648    1
   944   652   651   ar
   945   652   653   ar
   946   651   661   ar
   947  1699  1697   ar
   948  1169  1162   ar
   949   653   654   ar
   950   661   660   ar
   951   661   654   ar
   952   279   278    2
   953  1696  1697   ar
   954  1135  1150    1
   955   660   658   ar
   956   654   655   ar
   957  1163  1162   ar
   958  1163  1164    2
   959   643   644    1
   960   643   642    1
   961   644   646    1
   962   658   659    1
   963   658   657   ar
   964  1603  1602    1
   965  1651  1652    2
   966  1651  1653   ar
   967  1621  1626    1
   968   280   278    1
   969   655   657   ar
   970   655   656    2
   971  1626  1627    1
   972  1697  1698    1
   973  1162  1161    1
   974  1152  1150    2
   975   292   291    2
   976   283   282    1
   977   283   284    1
   978   293   291   ar
   979   293   294   ar
   980  1654  1653   ar
   981  1654  1655    1
   982   295   294    1
   983   281   278    1
   984   281   282    1
   985   291   290   ar
   986   278   263    1
   987   294   296   ar
   988   642   639    1
   989   639   640    2
   990   639   641    1
   991   649   648    1
   992   290   289    1
   993   290   297   ar
   994   289   284    1
   995   296   297   ar
   996   648   646    1
   997  1187  1186    1
   998  1150  1153    1
   999  1150  1151    1
  1000  1156  1161    1
  1001  1156  1155    1
  1002  1627  1628   ar
  1003  1627  1637   ar
  1004  1161  1159    1
  1005  1605  1604    1
  1006   646   647    1
  1007  1628  1629   ar
  1008  1602  1604    1
  1009  1602  1600    1
  1010  1210  1209    1
  1011  1153  1154    1
  1012  1185  1186   ar
  1013  1185  1183   ar
  1014  1186  1188   ar
  1015  1233  1232    1
  1016  1208  1209   ar
  1017  1208  1206   ar
  1018  1604  1606    1
  1019  1207  1206    2
  1020  1637  1636   ar
  1021  1637  1630   ar
  1022  1636  1634   ar
  1023   263   262    1
  1024  1154  1155    1
  1025  1209  1211   ar
  1026  1629  1630   ar
  1027  1184  1183    2
  1028  1183  1182   ar
  1029  1206  1205   ar
  1030  1155  1157    1
  1031   647   662    1
  1032  1600  1599    1
  1033  1600  1601    1
  1034  1188  1189   ar
  1035  1596  1595    2
  1036  1630  1631   ar
  1037  1159  1157    1
  1038  1159  1160    1
  1039  1634  1635    1
  1040  1634  1633   ar
  1041   256   255    2
  1042  1232  1231   ar
  1043  1232  1234   ar
  1044  1599  1598    1
  1045  1231  1229   ar
  1046  1182  1189   ar
  1047  1182  1181    1
  1048   262   264    1
  1049   262   260    1
  1050   257   255    1
  1051   668   673    1
  1052   668   667    1
  1053  1211  1212   ar
  1054  1157  1158    1
  1055  1598  1595    1
  1056  1606  1601    1
  1057  1606  1607    1
  1058  1205  1212   ar
  1059  1205  1204   ar
  1060  1631  1633   ar
  1061  1631  1632    2
  1062   680   681   ar
  1063   680   678   ar
  1064  1234  1235   ar
  1065   679   678    1
  1066   681   674   ar
  1067   272   271    2
  1068   255   258    1
  1069   255   240    1
  1070   678   677   ar
  1071  1595  1597    1
  1072  1595  1581    1
  1073   258   259    1
  1074   674   673    1
  1075   674   675   ar
  1076   673   671    1
  1077   264   265    1
  1078   264   266    1
  1079   677   675   ar
  1080  1212  1202   ar
  1081   675   676    2
  1082  1229  1230    2
  1083  1229  1228   ar
  1084   271   273   ar
  1085   271   270   ar
  1086  1181  1176    1
  1087  1181  1179    1
  1088   273   274   ar
  1089   662   664    2
  1090   662   665    1
  1091   662   663    1
  1092   666   667    1
  1093   666   665    1
  1094  1250  1249    2
  1095   259   260    1
  1096   270   269   ar
  1097   270   277   ar
  1098   667   669    1
  1099  1607  1614   ar
  1100  1607  1608   ar
  1101   269   268   ar
  1102  1204  1203   ar
  1103   274   275    1
  1104   274   276   ar
  1105  1176  1175    1
  1106   260   261    1
  1107  1609  1608    2
  1108  1297  1298   ar
  1109  1297  1295   ar
  1110  1235  1228   ar
  1111  1235  1225   ar
  1112  1614  1613   ar
  1113   277   276   ar
  1114   277   267   ar
  1115  1298  1299   ar
  1116   268   267   ar
  1117   233   232    2
  1118  1276  1275    1
  1119  1158  1170    1
  1120  1608  1610   ar
  1121  1228  1227   ar
  1122   267   266    1
  1123   234   232    1
  1124  1202  1203   ar
  1125  1202  1201    1
  1126  1172  1170    2
  1127  1296  1295    1
  1128  1581  1580    1
  1129  1295  1294   ar
  1130  1249  1251   ar
  1131  1249  1248   ar
  1132   266   261    1
  1133  1299  1300   ar
  1134   240   239    1
  1135   671   672    1
  1136   671   669    1
  1137  1179  1180    1
  1138  1179  1177    1
  1139  1247  1248    1
  1140  1247  1242    1
  1141  1247  1245    1
  1142  1613  1611   ar
  1143  1251  1252   ar
  1144  1246  1245    1
  1145  1275  1277   ar
  1146  1275  1274   ar
  1147   213   212    2
  1148   232   235    1
  1149   232   220    1
  1150  1201  1196    1
  1151  1201  1199    1
  1152  1610  1611   ar
  1153  1225  1224    1
  1154  1225  1226   ar
  1155  1277  1278   ar
  1156  1294  1300   ar
  1157  1294  1293   ar
  1158  1224  1219    1
  1159  1224  1222    1
  1160   669   670    1
  1161  1248  1255   ar
  1162  1300  1291   ar
  1163  1583  1582    1
  1164  1170  1173    1
  1165  1170  1171    1
  1166  1173  1174    1
  1167  1611  1612    1
  1168  1242  1241    1
  1169   214   212    1
  1170  1227  1226   ar
  1171  1175  1177    1
  1172  1175  1174    1
  1173  1223  1222    1
  1174  1274  1272   ar
  1175  1266  1265    1
  1176  1245  1243    1
  1177  1267  1262    1
  1178  1267  1268    1
  1179  1267  1265    1
  1180   239   241    1
  1181   239   237    1
  1182  1196  1195    1
  1183  1293  1292   ar
  1184   235   236    1
  1185  1580  1582    1
  1186  1580  1578    1
  1187  1582  1584    1
  1188   193   192    2
  1189  1252  1253    1
  1190  1252  1254   ar
  1191  1291  1290    1
  1192  1291  1292   ar
  1193  1278  1268   ar
  1194  1278  1271   ar
  1195  1177  1178    1
  1196  1262  1261    1
  1197  1219  1218    1
  1198   212   215    1
  1199   212   200    1
  1200  1222  1220    1
  1201  1290  1285    1
  1202  1290  1288    1
  1203  1255  1254   ar
  1204  1268  1269   ar
  1205  1199  1200    1
  1206  1199  1197    1
  1207   249   248    2
  1208   670   682    1
  1209   220   219    1
  1210  1272  1271   ar
  1211  1272  1273    2
  1212   236   237    1
  1213  1265  1263    1
  1214  1285  1284    1
  1215   246   247   ar
  1216   246   245   ar
  1217  1271  1270   ar
  1218  1241  1243    1
  1219  1241  1240    1
  1220   241   242    1
  1221   241   243    1
  1222   699   698    1
  1223   170   169    2
  1224   248   247   ar
  1225   248   250   ar
  1226   700   698   ar
  1227   700   701   ar
  1228   215   216    1
  1229   698   697   ar
  1230   194   192    1
  1231   247   254   ar
  1232   245   244   ar
  1233   237   238    1
  1234  1261  1263    1
  1235  1261  1260    1
  1236   192   195    1
  1237   192   177    1
  1238  1269  1270   ar
  1239   697   695   ar
  1240   701   694   ar
  1241  1243  1244    1
  1242  1289  1288    1
  1243  1578  1577    1
  1244  1578  1579    1
  1245   250   251   ar
  1246  1320  1321   ar
  1247  1320  1319   ar
  1248  1195  1197    1
  1249  1195  1194    1
  1250   200   199    1
  1251  1178  1190    1
  1252  1321  1322   ar
  1253  1288  1286    1
  1254   695   694   ar
  1255   695   696    2
  1256   254   244   ar
  1257   254   253   ar
  1258   244   243    1
  1259   219   217    1
  1260   219   221    1
  1261  1218  1220    1
  1262  1218  1217    1
  1263   694   693    1
  1264  1319  1317   ar
  1265  1584  1585    1
  1266  1584  1579    1
  1267   688   693    1
  1268   688   687    1
  1269   216   217    1
  1270  1197  1198    1
  1271   150   149    2
  1272  1220  1221    1
  1273   195   196    1
  1274  1593  1592   ar
  1275  1593  1594   ar
  1276   251   253   ar
  1277   251   252    1
  1278  1193  1194    1
  1279  1193  1190    1
  1280  1240  1239    1
  1281  1192  1190    2
  1282  1263  1264    1
  1283  1592  1591   ar
  1284  1322  1313   ar
  1285  1322  1316   ar
  1286   243   238    1
  1287  1260  1259    1
  1288  1577  1576    1
  1289   693   691    1
  1290   171   169    1
  1291  1317  1316   ar
  1292  1317  1318    1
  1293  1585  1594   ar
  1294  1585  1586   ar
  1295  1312  1313    1
  1296  1312  1307    1
  1297  1312  1310    1
  1298  1594  1588   ar
  1299   682   684    2
  1300   682   685    1
  1301   682   683    1
  1302   169   172    1
  1303   169   157    1
  1304  1576  1573    1
  1305  1284  1286    1
  1306  1284  1283    1
  1307  1244  1256    1
  1308  1313  1314   ar
  1309  1316  1315   ar
  1310   230   231   ar
  1311   230   228   ar
  1312  1307  1306    1
  1313  1591  1589   ar
  1314  1190  1191    1
  1315   196   197    1
  1316  1574  1573    2
  1317   217   218    1
  1318   229   228    1
  1319   177   176    1
  1320   199   197    1
  1321   199   201    1
  1322  1586  1587   ar
  1323  1588  1589   ar
  1324  1588  1587   ar
  1325  1264  1279    1
  1326   685   686    1
  1327  1239  1236    1
  1328   231   224   ar
  1329  1589  1590    1
  1330  1314  1315   ar
  1331  1217  1216    1
  1332   221   222    1
  1333   221   223    1
  1334  1221  1236    1
  1335  1311  1310    1
  1336   686   687    1
  1337  1286  1287    1
  1338   228   227   ar
  1339  1216  1213    1
  1340  1259  1256    1
  1341   172   173    1
  1342   687   689    1
  1343  1283  1282    1
  1344  1573  1575    1
  1345  1573  1561    1
  1346  1198  1213    1
  1347  1282  1279    1
  1348   173   174    1
  1349   149   151    1
  1350   149   152    1
  1351   149   135    1
  1352   197   198    1
  1353   157   156    1
  1354  1310  1308    1
  1355   224   223    1
  1356   224   225   ar
  1357  1256  1258    2
  1358  1256  1257    1
  1359  1306  1305    1
  1360  1306  1308    1
  1361   218   223    1
  1362   691   692    1
  1363   691   689    1
  1364   176   174    1
  1365   176   178    1
  1366   227   225   ar
  1367   128   127    2
  1368  1236  1238    2
  1369  1236  1237    1
  1370  1215  1213    2
  1371   152   153    1
  1372   201   202    1
  1373   201   203    1
  1374   719   718    2
  1375  1213  1214    1
  1376  1279  1281    2
  1377  1279  1280    1
  1378  1287  1301    1
  1379   225   226    2
  1380   210   211   ar
  1381   210   208   ar
  1382   153   154    1
  1383   211   204   ar
  1384   689   690    1
  1385   174   175    1
  1386   718   720   ar
  1387   718   717   ar
  1388   135   134    1
  1389  1329  1334    1
  1390  1329  1328    1
  1391  1305  1304    1
  1392  1334  1335    1
  1393  1334  1332    1
  1394  1308  1309    1
  1395   156   154    1
  1396   156   158    1
  1397   720   721   ar
  1398   716   717   ar
  1399   716   715   ar
  1400   198   203    1
  1401  1561  1560    1
  1402   717   724   ar
  1403  1304  1301    1
  1404  1335  1345   ar
  1405  1335  1336   ar
  1406   208   209    1
  1407   208   207   ar
  1408   204   203    1
  1409   204   205   ar
  1410   154   155    1
  1411  1333  1332    1
  1412  1344  1345   ar
  1413  1344  1342   ar
  1414   715   714   ar
  1415   721   722    1
  1416   721   723   ar
  1417   178   179    1
  1418   178   180    1
  1419  1343  1342    1
  1420  1345  1338   ar
  1421   724   723   ar
  1422   724   714   ar
  1423  1336  1337   ar
  1424  1342  1341   ar
  1425   127   130    1
  1426   127   129    1
  1427   127   115    1
  1428  1328  1327    1
  1429  1328  1330    1
  1430   131   130    1
  1431   131   132    1
  1432  1301  1303    2
  1433  1301  1302    1
  1434   714   713    1
  1435  1309  1323    1
  1436  1338  1337   ar
  1437  1338  1339   ar
  1438   690   702    1
  1439  1560  1562    1
  1440  1560  1558    1
  1441   175   180    1
  1442  1332  1330    1
  1443  1562  1563    1
  1444  1562  1564    1
  1445  1341  1339   ar
  1446   134   132    1
  1447   134   136    1
  1448   207   205   ar
  1449   205   206    2
  1450  1339  1340    2
  1451   158   159    1
  1452   158   160    1
  1453   182   183   ar
  1454   182   181   ar
  1455  1327  1326    1
  1456   708   713    1
  1457   708   707    1
  1458   713   711    1
  1459   132   133    1
  1460   180   181    1
  1461   115   114    1
  1462   183   184   ar
  1463   181   191   ar
  1464  1567  1566    2
  1465   704   702    2
  1466  1568  1569   ar
  1467  1568  1566   ar
  1468  1326  1323    1
  1469  1570  1569    1
  1470   155   160    1
  1471   742   741    2
  1472  1569  1571   ar
  1473  1566  1565   ar
  1474  1330  1331    1
  1475  1571  1572   ar
  1476   137   136    1
  1477  1565  1572   ar
  1478  1565  1564    1
  1479   702   705    1
  1480   702   703    1
  1481   136   138    1
  1482  1323  1325    2
  1483  1323  1324    1
  1484   705   706    1
  1485   168   167   ar
  1486   168   161   ar
  1487  1564  1559    1
  1488   743   741   ar
  1489   743   744   ar
  1490   160   161    1
  1491   741   740   ar
  1492   184   191   ar
  1493   184   185   ar
  1494   191   190   ar
  1495  1558  1557    1
  1496  1558  1559    1
  1497  1555  1553    2
  1498  1556  1557    1
  1499  1556  1553    1
  1500   707   706    1
  1501   707   709    1
  1502  1331  1346    1
  1503   167   165   ar
  1504  1554  1553    1
  1505   745   744    1
  1506   161   162   ar
  1507   711   712    1
  1508   711   709    1
  1509   133   138    1
  1510   744   746   ar
  1511   114   112    1
  1512   114   116    1
  1513  1553  1541    1
  1514   185   186    2
  1515   185   187   ar
  1516   740   739   ar
  1517   740   747   ar
  1518   190   188   ar
  1519   108   107    2
  1520  1352  1357    1
  1521  1352  1351    1
  1522   111   112    1
  1523   111   110    1
  1524   739   738   ar
  1525   117   116    1
  1526   138   139    1
  1527   112   113    1
  1528   746   747   ar
  1529   709   710    1
  1530   747   737   ar
  1531   187   188   ar
  1532   165   166    1
  1533   165   164   ar
  1534   188   189    1
  1535  1357  1358    1
  1536  1357  1355    1
  1537   116   118    1
  1538   162   164   ar
  1539   162   163    2
  1540   110   107    1
  1541  1365  1358   ar
  1542  1365  1364   ar
  1543  1350  1351    1
  1544  1350  1349    1
  1545   738   737   ar
  1546  1358  1359   ar
  1547  1351  1353    1
  1548   737   736    1
  1549  1364  1362   ar
  1550  1346  1349    1
  1551  1346  1347    2
  1552  1346  1348    1
  1553   139   140   ar
  1554   139   148   ar
  1555  1359  1360    2
  1556  1359  1361   ar
  1557   107   109    1
  1558   107    95    1
  1559   140   141   ar
  1560  1535  1533    2
  1561  1550  1549    2
  1562  1362  1361   ar
  1563  1362  1363    2
  1564  1356  1355    1
  1565  1541  1540    1
  1566   736   731    1
  1567   736   734    1
  1568   731   730    1
  1569   765   764    1
  1570  1549  1548   ar
  1571  1549  1551   ar
  1572   710   725    1
  1573   113   118    1
  1574  1534  1533    1
  1575  1355  1353    1
  1576   763   764   ar
  1577   763   761   ar
  1578  1548  1546   ar
  1579   148   147   ar
  1580   148   142   ar
  1581   118   119    1
  1582  1540  1542    1
  1583  1540  1538    1
  1584   141   142   ar
  1585   762   761    2
  1586  1551  1552   ar
  1587    95    94    1
  1588  1448  1447    2
  1589   147   146   ar
  1590  1533  1536    1
  1591  1533  1518    1
  1592  1353  1354    1
  1593   764   766   ar
  1594   788   787    1
  1595   761   760   ar
  1596  1542  1543    1
  1597  1542  1544    1
  1598  1546  1547    2
  1599  1546  1545   ar
  1600   142   143   ar
  1601  1536  1537    1
  1602  1552  1545   ar
  1603   727   725    2
  1604   786   787   ar
  1605   786   784   ar
  1606   728   725    1
  1607   728   729    1
  1608   787   789   ar
  1609  1545  1544    1
  1610   119   126   ar
  1611   119   120   ar
  1612   725   726    1
  1613  1512  1510    2
  1614   730   729    1
  1615   730   732    1
  1616   146   145   ar
  1617   785   784    2
  1618  1354  1366    1
  1619   121   120    2
  1620    97    96    1
  1621   766   767   ar
  1622   734   735    1
  1623   734   732    1
  1624  1511  1510    1
  1625   126   125   ar
  1626   784   783   ar
  1627   760   767   ar
  1628   760   759    1
  1629  1537  1538    1
  1630  1538  1539    1
  1631  1468  1467    2
  1632   143   145   ar
  1633   143   144    1
  1634   120   122   ar
  1635    94    96    1
  1636    94    92    1
  1637  1544  1539    1
  1638   789   790   ar
  1639  1518  1517    1
  1640  1447  1449    1
  1641  1447  1435    1
  1642  1447  1450    1
  1643    96    98    1
  1644  1469  1467    1
  1645   855   854    1
  1646  1510  1513    1
  1647  1510  1498    1
  1648   732   733    1
  1649  1491  1490    2
  1650   759   754    1
  1651   759   757    1
  1652  1492  1490    1
  1653   783   790   ar
  1654   783   782   ar
  1655   790   780   ar
  1656   125   123   ar
  1657   122   123   ar
  1658  1467  1455    1
  1659  1467  1470    1
  1660  1517  1519    1
  1661  1517  1515    1
  1662   754   753    1
  1663  1513  1514    1
  1664  1367  1366    2
  1665  1435  1434    1
  1666  1451  1450    1
  1667  1451  1452    1
  1668  1527  1526    2
  1669  1366  1368    1
  1670  1366  1369    1
  1671    92    91    1
  1672    92    93    1
  1673   854   856   ar
  1674   854   853   ar
  1675   123   124    1
  1676    88    87    2
  1677  1490  1493    1
  1678  1490  1475    1
  1679  1455  1454    1
  1680  1383  1382    1
  1681   782   781   ar
  1682  1372  1377    1
  1683  1372  1371    1
  1684  1384  1382   ar
  1685  1384  1385   ar
  1686    91    90    1
  1687  1524  1525   ar
  1688  1524  1523   ar
  1689  1526  1525   ar
  1690  1526  1528   ar
  1691   780   779    1
  1692   780   781   ar
  1693  1382  1381   ar
  1694   856   857   ar
  1695  1385  1378   ar
  1696   853   851   ar
  1697  1514  1515    1
  1698  1381  1379   ar
  1699  1525  1532   ar
  1700  1378  1379   ar
  1701  1378  1377    1
  1702    90    87    1
  1703  1379  1380    2
  1704  1519  1520    1
  1705  1519  1521    1
  1706  1528  1529   ar
  1707   779   774    1
  1708   779   777    1
  1709  1523  1522   ar
  1710  1431  1432    1
  1711  1431  1430    1
  1712   757   758    1
  1713   757   755    1
  1714  1377  1375    1
  1715  1498  1497    1
  1716    98    93    1
  1717    98    99    1
  1718   733   748    1
  1719  1515  1516    1
  1720  1493  1494    1
  1721  1452  1454    1
  1722  1452  1453    1
  1723  1532  1522   ar
  1724  1532  1531   ar
  1725   872   871    2
  1726   774   773    1
  1727    87    89    1
  1728    87    72    1
  1729  1529  1530    1
  1730  1529  1531   ar
  1731  1522  1521    1
  1732   857   850   ar
  1733   857   847   ar
  1734  1434  1432    1
  1735  1434  1436    1
  1736  1370  1369    1
  1737  1370  1371    1
  1738  1454  1456    1
  1739  1470  1471    1
  1740   868   867    1
  1741   851   852    2
  1742   851   850   ar
  1743  1432  1433    1
  1744   753   752    1
  1745   753   755    1
  1746  1371  1373    1
  1747   869   864    1
  1748   869   870    1
  1749   869   867    1
  1750   864   863    1
  1751   845   844    1
  1752    99   106   ar
  1753    99   100   ar
  1754  1475  1474    1
  1755   751   752    1
  1756   751   748    1
  1757   850   849   ar
  1758   750   748    2
  1759  1497  1495    1
  1760  1497  1499    1
  1761   846   847    1
  1762   846   844    1
  1763   846   841    1
  1764   106   105   ar
  1765   101   100    2
  1766  1521  1516    1
  1767   847   848   ar
  1768   778   777    1
  1769   871   870   ar
  1770   871   873   ar
  1771   755   756    1
  1772   100   102   ar
  1773  1494  1495    1
  1774   777   775    1
  1775   748   749    1
  1776  1471  1472    1
  1777   870   877   ar
  1778  1437  1436    1
  1779  1508  1509   ar
  1780  1508  1506   ar
  1781   844   842    1
  1782  1507  1506    1
  1783   867   865    1
  1784  1376  1375    1
  1785  1375  1373    1
  1786   105   103   ar
  1787  1474  1472    1
  1788  1474  1476    1
  1789   873   874   ar
  1790   849   848   ar
  1791  1436  1438    1
  1792   863   862    1
  1793   863   865    1
  1794  1453  1458    1
  1795  1509  1502   ar
  1796   102   103   ar
  1797  1506  1505   ar
  1798    72    71    1
  1799   773   775    1
  1800   773   772    1
  1801  1495  1496    1
  1802   103   104    2
  1803  1373  1374    1
  1804  1456  1457    1
  1805  1456  1458    1
  1806   841   840    1
  1807  1499  1500    1
  1808  1499  1501    1
  1809   877   876   ar
  1810  1433  1438    1
  1811   884   889    1
  1812   884   883    1
  1813  1472  1473    1
  1814   874   876   ar
  1815   874   875    2
  1816   775   776    1
  1817   862   861    1
  1818   756   768    1
  1819   865   866    1
  1820   889   890    1
  1821   889   887    1
  1822  1502  1501    1
  1823  1502  1503   ar
  1824  1505  1503   ar
  1825   772   771    1
  1826  1458  1459    1
  1827  1403  1402    2
  1828  1466  1459   ar
  1829  1466  1465   ar
  1830  1438  1439    1
  1831   888   887    1
  1832  1476  1477    1
  1833  1476  1478    1
  1834   883   882    1
  1835   883   885    1
  1836   842   840    1
  1837   842   843    1
  1838   892   891    2
  1839   771   768    1
  1840  1480  1481   ar
  1841  1480  1479   ar
  1842  1496  1501    1
  1843  1503  1504    2
  1844  1374  1386    1
  1845  1481  1482   ar
  1846   866   878    1
  1847    71    73    1
  1848    71    69    1
  1849  1400  1401   ar
  1850  1400  1399   ar
  1851   770   768    2
  1852   840   839    1
  1853  1402  1401   ar
  1854  1402  1404   ar
  1855    74    73    1
  1856   882   881    1
  1857   890   891   ar
  1858   890   897   ar
  1859  1459  1460   ar
  1860  1473  1478    1
  1861  1465  1463   ar
  1862  1401  1408   ar
  1863    73    75    1
  1864   891   893   ar
  1865  1399  1398   ar
  1866   768   769    1
  1867  1404  1405   ar
  1868   843   858    1
  1869   776   791    1
  1870   861   858    1
  1871   887   885    1
  1872  1479  1478    1
  1873  1479  1489   ar
  1874  1446  1439   ar
  1875  1446  1445   ar
  1876  1439  1440   ar
  1877   897   896   ar
  1878  1408  1398   ar
  1879  1408  1407   ar
  1880  1398  1397    1
  1881  1482  1489   ar
  1882  1482  1483   ar
  1883    84    83    1
  1884  1405  1407   ar
  1885  1405  1406    1
  1886  1392  1397    1
  1887  1392  1391    1
  1888   815   813    2
  1889   893   894   ar
  1890   837   835    2
  1891  1484  1483    2
  1892   885   886    1
  1893   881   878    1
  1894  1489  1488   ar
  1895  1397  1395    1
  1896  1483  1485   ar
  1897    83    85   ar
  1898    83    82   ar
  1899    69    68    1
  1900    69    70    1
  1901  1460  1461    2
  1902  1460  1462   ar
  1903   896   894   ar
  1904  1445  1443   ar
  1905    85    86   ar
  1906   839   838    1
  1907  1463  1462   ar
  1908  1463  1464    2
  1909   894   895    1
  1910   878   879    2
  1911   878   880    1
  1912   858   859    2
  1913   858   860    1
  1914  1386  1388    2
  1915  1386  1389    1
  1916  1386  1387    1
  1917    82    80   ar
  1918    68    67    1
  1919  1440  1441    2
  1920  1440  1442   ar
  1921   838   835    1
  1922    67    64    1
  1923    65    64    2
  1924   886   898    1
  1925   793   791    2
  1926    86    76   ar
  1927    86    79   ar
  1928    75    76    1
  1929    75    70    1
  1930   814   813    1
  1931   791   794    1
  1932   791   792    1
  1933  1389  1390    1
  1934  1488  1486   ar
  1935    80    79   ar
  1936    80    81    2
  1937  1390  1391    1
  1938  1485  1486   ar
  1939   794   795    1
  1940   904   909    1
  1941   904   903    1
  1942   835   836    1
  1943   835   821    1
  1944    76    77   ar
  1945  1391  1393    1
  1946   813   799    1
  1947   813   816    1
  1948    79    78   ar
  1949  1486  1487    1
  1950  1443  1442   ar
  1951  1443  1444    2
  1952    64    66    1
  1953    64    52    1
  1954    77    78   ar
  1955  1426  1425    1
  1956   902   903    1
  1957   902   901    1
  1958  1395  1396    1
  1959  1395  1393    1
  1960   909   910    1
  1961   909   907    1
  1962   903   905    1
  1963   795   796    1
  1964   799   798    1
  1965   816   817    1
  1966  1425  1424   ar
  1967  1425  1427   ar
  1968  1393  1394    1
  1969   901   898    1
  1970   910   911   ar
  1971   910   920   ar
  1972   898   899    2
  1973   898   900    1
  1974   911   912   ar
  1975  1424  1422   ar
  1976   821   820    1
  1977   908   907    1
  1978   798   796    1
  1979   798   800    1
  1980  1427  1428   ar
  1981   827   826   ar
  1982   827   828   ar
  1983   820   822    1
  1984   820   818    1
  1985   920   919   ar
  1986   920   913   ar
  1987   912   913   ar
  1988   919   917   ar
  1989  1422  1423    2
  1990  1422  1421   ar
  1991   830   829    1
  1992   907   905    1
  1993    52    51    1
  1994   796   797    1
  1995   826   825   ar
  1996   817   818    1
  1997   913   914   ar
  1998   805   804   ar
  1999   805   806   ar
  2000  1428  1421   ar
  2001   905   906    1
  2002   804   803   ar
  2003  1421  1420    1
  2004   828   829   ar
  2005   828   834   ar
  2006   917   918    1
  2007   917   916   ar
  2008  1394  1409    1
  2009   829   831   ar
  2010  1415  1420    1
  2011  1415  1414    1
  2012   822   824    1
  2013   822   823    1
  2014   914   916   ar
  2015   914   915    2
  2016   818   819    1
  2017  1420  1418    1
  2018   800   802    1
  2019   800   801    1
  2020   825   834   ar
  2021   825   824    1
  2022    51    53    1
  2023    51    49    1
  2024   808   807    1
  2025   906   921    1
  2026   806   807   ar
  2027   806   812   ar
  2028    53    54    1
  2029    53    55    1
  2030   834   833   ar
  2031   803   802    1
  2032   803   812   ar
  2033   797   802    1
  2034   831   832   ar
  2035    61    60    1
  2036   807   809   ar
  2037   824   819    1
  2038    59    60   ar
  2039    59    57   ar
  2040   812   811   ar
  2041    58    57    2
  2042    60    62   ar
  2043    57    56   ar
  2044   833   832   ar
  2045  1411  1409    2
  2046  1412  1409    1
  2047  1412  1413    1
  2048  1409  1410    1
  2049  1414  1413    1
  2050  1414  1416    1
  2051    46    44    2
  2052    62    63   ar
  2053    56    55    1
  2054    56    63   ar
  2055  1418  1419    1
  2056  1418  1416    1
  2057   809   810   ar
  2058    49    48    1
  2059    49    50    1
  2060    47    48    1
  2061    47    44    1
  2062    55    50    1
  2063   811   810   ar
  2064   927   926    1
  2065   927   932    1
  2066   921   923    2
  2067   921   922    1
  2068   921   924    1
  2069    45    44    1
  2070   925   924    1
  2071   925   926    1
  2072    44    29    1
  2073  1416  1417    1
  2074   926   928    1
  2075   940   939   ar
  2076   940   933   ar
  2077   932   933    1
  2078   932   930    1
  2079    23    21    2
  2080   939   937   ar
  2081   933   934   ar
  2082   937   938    1
  2083   937   936   ar
  2084   934   935    2
  2085   934   936   ar
  2086     2     1    1
  2087    38    37    2
  2088    29    28    1
  2089    22    21    1
  2090    21    24    1
  2091    21     9    1
  2092   928   930    1
  2093   928   929    1
  2094   931   930    1
  2095    37    39   ar
  2096    37    36   ar
  2097    28    30    1
  2098    28    26    1
  2099    35    36   ar
  2100    35    34   ar
  2101    39    40   ar
  2102    36    43   ar
  2103     1     3    1
  2104     1     4    1
  2105    30    31    1
  2106    30    32    1
  2107    24    25    1
  2108    34    33   ar
  2109    40    41    1
  2110    40    42   ar
  2111    43    42   ar
  2112    43    33   ar
  2113     9     8    1
  2114    33    32    1
  2115    25    26    1
  2116    26    27    1
  2117    32    27    1
  2118     4     5    1
  2119     8     6    1
  2120     8    10    1
  2121     5     6    1
  2122     6     7    1
  2123    10    11    1
  2124    10    12    1
  2125    19    20   ar
  2126    19    17   ar
  2127    18    17    2
  2128    20    13   ar
  2129    17    16   ar
  2130     7    12    1
  2131    13    12    1
  2132    13    14   ar
  2133    16    14   ar
  2134    14    15    2
