1ntb_lig
 OpenBabel02221317003D

 40 42  0  0  1  0  0  0  0  0999 V2000
    9.8540   33.3210   -1.4090 C   0  0  0  0  0  0  0  0  0  0  0  0
   10.5830   32.2830   -1.2630 N   0  0  0  0  0  0  0  0  0  0  0  0
   -0.8020   34.3170   -3.9730 C   0  0  0  0  0  0  0  0  0  0  0  0
   -0.1440   35.2860   -4.7720 O   0  0  0  0  0  0  0  0  0  0  0  0
    4.6030   36.1660    0.5680 C   0  0  0  0  0  0  0  0  0  0  0  0
    4.7640   35.9830    1.8300 N   0  0  0  0  0  0  0  0  0  0  0  0
    0.1160   31.3340   -3.0570 C   0  0  0  0  0  0  0  0  0  0  0  0
   -2.3520   34.8870    0.3880 C   0  0  0  0  0  0  0  0  0  0  0  0
    7.5710   33.9150   -1.3790 C   0  0  2  0  0  0  0  0  0  0  0  0
    8.7800   33.3760   -0.6450 N   0  0  0  0  0  0  0  0  0  0  0  0
    2.4160   33.8660   -2.2480 C   0  0  2  0  0  0  0  0  0  0  0  0
   -0.2700   36.2350   -1.7170 C   0  0  1  0  0  0  0  0  0  0  0  0
    0.9430   35.5300   -1.5280 O   0  0  0  0  0  0  0  0  0  0  0  0
    6.4840   34.3450   -0.4000 C   0  0  1  0  0  0  0  0  0  0  0  0
    7.1390   35.3660    0.4720 O   0  0  0  0  0  0  0  0  0  0  0  0
    1.2460   34.7650   -2.6040 C   0  0  2  0  0  0  0  0  0  0  0  0
   -0.7990   36.6580   -0.3680 C   0  0  1  0  0  0  0  0  0  0  0  0
   -1.0600   35.5110    0.4280 N   0  0  0  0  0  0  0  0  0  0  0  0
    5.2290   34.8690   -1.0950 C   0  0  2  0  0  0  0  0  0  0  0  0
    4.1650   35.2960   -0.2100 N   0  0  0  0  0  0  0  0  0  0  0  0
    0.1480   33.7860   -2.9250 C   0  0  1  0  0  0  0  0  0  0  0  0
   -0.5720   33.4510   -1.7340 O   0  0  0  0  0  0  0  0  0  0  0  0
    0.2600   37.5180    0.3010 C   0  0  2  0  0  0  0  0  0  0  0  0
   -0.1810   37.9340    1.5750 O   0  0  0  0  0  0  0  0  0  0  0  0
    4.7000   33.7760   -1.9870 C   0  0  1  0  0  0  0  0  0  0  0  0
    3.6340   34.4030   -2.7530 O   0  0  0  0  0  0  0  0  0  0  0  0
    0.8630   32.5880   -3.4310 C   0  0  1  0  0  0  0  0  0  0  0  0
    2.1590   32.5850   -2.8280 O   0  0  0  0  0  0  0  0  0  0  0  0
    0.4890   38.7280   -0.6050 C   0  0  1  0  0  0  0  0  0  0  0  0
    1.4760   39.5820   -0.0480 O   0  0  0  0  0  0  0  0  0  0  0  0
    5.7800   33.3630   -3.0230 C   0  0  2  0  0  0  0  0  0  0  0  0
    5.2570   32.3440   -3.8610 O   0  0  0  0  0  0  0  0  0  0  0  0
    0.9380   38.2380   -1.9820 C   0  0  1  0  0  0  0  0  0  0  0  0
   -0.0550   37.3790   -2.5400 O   0  0  0  0  0  0  0  0  0  0  0  0
    7.0220   32.8300   -2.2830 C   0  0  1  0  0  0  0  0  0  0  0  0
    8.0290   32.4440   -3.2260 O   0  0  0  0  0  0  0  0  0  0  0  0
    1.1360   39.4460   -2.8980 C   0  0  0  0  0  0  0  0  0  0  0  0
    2.0070   40.3710   -2.2670 O   0  0  0  0  0  0  0  0  0  0  0  0
   10.1300   34.2440   -2.2620 N   0  0  0  0  0  0  0  0  0  0  0  0
    4.8410   37.2840    0.0780 N   0  0  0  0  0  0  0  0  0  0  0  0
  1  2  1  0  0  0  0
  1 39  1  0  0  0  0
  3  4  1  0  0  0  0
  5  6  1  0  0  0  0
  5 40  1  0  0  0  0
  9 10  1  1  0  0  0
  9 14  1  0  0  0  0
  9 35  1  0  0  0  0
 10  1  1  0  0  0  0
 11 16  1  0  0  0  0
 11 28  1  0  0  0  0
 11 26  1  6  0  0  0
 12 17  1  0  0  0  0
 12 34  1  0  0  0  0
 12 13  1  1  0  0  0
 14 15  1  6  0  0  0
 14 19  1  0  0  0  0
 16 13  1  1  0  0  0
 16 21  1  0  0  0  0
 17 18  1  1  0  0  0
 17 23  1  0  0  0  0
 18  8  1  0  0  0  0
 19 20  1  1  0  0  0
 19 25  1  0  0  0  0
 20  5  1  0  0  0  0
 21  3  1  6  0  0  0
 21 22  1  0  0  0  0
 21 27  1  0  0  0  0
 23 24  1  6  0  0  0
 23 29  1  0  0  0  0
 25 26  1  6  0  0  0
 25 31  1  0  0  0  0
 27  7  1  1  0  0  0
 27 28  1  0  0  0  0
 29 30  1  1  0  0  0
 29 33  1  0  0  0  0
 31 32  1  1  0  0  0
 31 35  1  0  0  0  0
 33 34  1  0  0  0  0
 33 37  1  6  0  0  0
 35 36  1  6  0  0  0
 37 38  1  0  0  0  0
M  END
$$$$
